
     RDKit          3D

 68 72  0  0  0  0  0  0  0  0999 V2000
    6.4743   -4.5276   -1.0092 C   0  0  0  0  0  0  0  0  0  0  0  0
    5.1736   -3.8671   -0.6361 C   0  0  0  0  0  0  0  0  0  0  0  0
    4.0053   -4.6484   -0.6275 C   0  0  0  0  0  0  0  0  0  0  0  0
    2.7658   -4.0906   -0.3083 C   0  0  0  0  0  0  0  0  0  0  0  0
    2.6728   -2.7427    0.0127 C   0  0  0  0  0  0  0  0  0  0  0  0
    3.8404   -1.9651    0.0108 C   0  0  0  0  0  0  0  0  0  0  0  0
    5.1034   -2.4970   -0.3015 C   0  0  0  0  0  0  0  0  0  0  0  0
    6.2603   -1.7020   -0.3492 N   0  0  0  0  0  0  0  0  0  0  0  0
    6.4935   -0.3331   -0.2515 C   0  0  0  0  0  0  0  0  0  0  0  0
    7.7835    0.0309   -0.2254 N   0  0  0  0  0  0  0  0  0  0  0  0
    8.0475    1.3469   -0.1458 C   0  0  0  0  0  0  0  0  0  0  0  0
    7.0763    2.3160   -0.0876 C   0  0  0  0  0  0  0  0  0  0  0  0
    5.7735    1.8671   -0.1201 C   0  0  0  0  0  0  0  0  0  0  0  0
    5.4874    0.5507   -0.2099 N   0  0  0  0  0  0  0  0  0  0  0  0
    4.6013    2.7562   -0.0615 C   0  0  0  0  0  0  0  0  0  0  0  0
    4.5988    3.9860    0.6124 C   0  0  0  0  0  0  0  0  0  0  0  0
    3.4479    4.7756    0.6440 C   0  0  0  0  0  0  0  0  0  0  0  0
    2.3136    4.3144    0.0001 C   0  0  0  0  0  0  0  0  0  0  0  0
    2.2571    3.1395   -0.6567 N   0  0  0  0  0  0  0  0  0  0  0  0
    3.3947    2.3980   -0.6710 C   0  0  0  0  0  0  0  0  0  0  0  0
    1.4658   -2.0833    0.3300 N   0  0  0  0  0  0  0  0  0  0  0  0
    0.2062   -2.6405    0.4462 C   0  0  0  0  0  0  0  0  0  0  0  0
   -0.0797   -3.8300    0.3731 O   0  0  0  0  0  0  0  0  0  0  0  0
   -0.8873   -1.6656    0.7297 C   0  0  0  0  0  0  0  0  0  0  0  0
   -0.8785   -0.3673    0.2051 C   0  0  0  0  0  0  0  0  0  0  0  0
   -1.9286    0.5085    0.4936 C   0  0  0  0  0  0  0  0  0  0  0  0
   -3.0037    0.0990    1.2975 C   0  0  0  0  0  0  0  0  0  0  0  0
   -3.0117   -1.2065    1.8079 C   0  0  0  0  0  0  0  0  0  0  0  0
   -1.9637   -2.0847    1.5208 C   0  0  0  0  0  0  0  0  0  0  0  0
   -4.1397    1.0543    1.6024 C   0  0  0  0  0  0  0  0  0  0  0  0
   -4.8478    1.5126    0.3974 N   0  0  0  0  0  0  0  0  0  0  0  0
   -5.6200    0.4170   -0.2296 C   0  0  0  0  0  0  0  0  0  0  0  0
   -6.4411    0.8994   -1.4480 C   0  0  0  0  0  0  0  0  0  0  0  0
   -7.3581    2.0027   -1.1011 N   0  0  0  0  0  0  0  0  0  0  0  0
   -6.5850    3.0975   -0.4856 C   0  0  0  0  0  0  0  0  0  0  0  0
   -5.7706    2.6152    0.7362 C   0  0  0  0  0  0  0  0  0  0  0  0
   -8.0702    2.4732   -2.2864 C   0  0  0  0  0  0  0  0  0  0  0  0
    6.9216   -4.0267   -1.8740 H   0  0  0  0  0  0  0  0  0  0  0  0
    7.1707   -4.4958   -0.1650 H   0  0  0  0  0  0  0  0  0  0  0  0
    6.3310   -5.5794   -1.2794 H   0  0  0  0  0  0  0  0  0  0  0  0
    4.0474   -5.7061   -0.8803 H   0  0  0  0  0  0  0  0  0  0  0  0
    1.8934   -4.7358   -0.3273 H   0  0  0  0  0  0  0  0  0  0  0  0
    3.7547   -0.9174    0.2769 H   0  0  0  0  0  0  0  0  0  0  0  0
    7.1479   -2.1794   -0.3811 H   0  0  0  0  0  0  0  0  0  0  0  0
    9.1021    1.6071   -0.1328 H   0  0  0  0  0  0  0  0  0  0  0  0
    7.3390    3.3633   -0.0372 H   0  0  0  0  0  0  0  0  0  0  0  0
    5.4812    4.3368    1.1407 H   0  0  0  0  0  0  0  0  0  0  0  0
    3.4368    5.7256    1.1669 H   0  0  0  0  0  0  0  0  0  0  0  0
    1.3941    4.8928   -0.0013 H   0  0  0  0  0  0  0  0  0  0  0  0
    3.3053    1.4609   -1.2186 H   0  0  0  0  0  0  0  0  0  0  0  0
    1.5535   -1.0975    0.5419 H   0  0  0  0  0  0  0  0  0  0  0  0
   -0.0848   -0.0261   -0.4543 H   0  0  0  0  0  0  0  0  0  0  0  0
   -1.9203    1.5122    0.0711 H   0  0  0  0  0  0  0  0  0  0  0  0
   -3.8380   -1.5533    2.4246 H   0  0  0  0  0  0  0  0  0  0  0  0
   -1.9873   -3.0988    1.9153 H   0  0  0  0  0  0  0  0  0  0  0  0
   -4.8387    0.6017    2.3186 H   0  0  0  0  0  0  0  0  0  0  0  0
   -3.6903    1.9141    2.1178 H   0  0  0  0  0  0  0  0  0  0  0  0
   -4.9421   -0.3695   -0.5805 H   0  0  0  0  0  0  0  0  0  0  0  0
   -6.3017   -0.0397    0.5010 H   0  0  0  0  0  0  0  0  0  0  0  0
   -5.7506    1.2068   -2.2452 H   0  0  0  0  0  0  0  0  0  0  0  0
   -7.0209    0.0495   -1.8282 H   0  0  0  0  0  0  0  0  0  0  0  0
   -7.2709    3.8848   -0.1504 H   0  0  0  0  0  0  0  0  0  0  0  0
   -5.9010    3.5488   -1.2173 H   0  0  0  0  0  0  0  0  0  0  0  0
   -5.1952    3.4674    1.1181 H   0  0  0  0  0  0  0  0  0  0  0  0
   -6.4646    2.3071    1.5302 H   0  0  0  0  0  0  0  0  0  0  0  0
   -8.6641    1.6629   -2.7237 H   0  0  0  0  0  0  0  0  0  0  0  0
   -8.7732    3.2703   -2.0200 H   0  0  0  0  0  0  0  0  0  0  0  0
   -7.3910    2.8565   -3.0565 H   0  0  0  0  0  0  0  0  0  0  0  0
  1  2  1  0
  2  3  2  0
  3  4  1  0
  4  5  2  0
  5  6  1  0
  6  7  2  0
  7  8  1  0
  8  9  1  0
  9 10  2  0
 10 11  1  0
 11 12  2  0
 12 13  1  0
 13 14  2  0
 13 15  1  0
 15 16  2  0
 16 17  1  0
 17 18  2  0
 18 19  1  0
 19 20  2  0
  5 21  1  0
 21 22  1  0
 22 23  2  0
 22 24  1  0
 24 25  2  0
 25 26  1  0
 26 27  2  0
 27 28  1  0
 28 29  2  0
 27 30  1  0
 30 31  1  0
 31 32  1  0
 32 33  1  0
 33 34  1  0
 34 35  1  0
 35 36  1  0
 34 37  1  0
  7  2  1  0
 14  9  1  0
 20 15  1  0
 29 24  1  0
 36 31  1  0
  1 38  1  0
  1 39  1  0
  1 40  1  0
  3 41  1  0
  4 42  1  0
  6 43  1  0
  8 44  1  0
 11 45  1  0
 12 46  1  0
 16 47  1  0
 17 48  1  0
 18 49  1  0
 20 50  1  0
 21 51  1  0
 25 52  1  0
 26 53  1  0
 28 54  1  0
 29 55  1  0
 30 56  1  0
 30 57  1  0
 32 58  1  0
 32 59  1  0
 33 60  1  0
 33 61  1  0
 35 62  1  0
 35 63  1  0
 36 64  1  0
 36 65  1  0
 37 66  1  0
 37 67  1  0
 37 68  1  0
M  END
>  <energy_abs>  (1) 
64.95194312694161

>  <SMILES>  (1) 
Cc1ccc(cc1Nc2nccc(n2)c3cccnc3)NC(=O)c4ccc(cc4)CN5CCN(CC5)C

>  <cluster_no>  (1) 
224

>  <fda_drugs_id>  (1) 
1IEP_STI

>  <initial_conformation_id>  (1) 
74

>  <minimize_method>  (1) 
MMFF

$$$$
