
     RDKit          3D

 54 57  0  0  0  0  0  0  0  0999 V2000
    8.0764   -2.1569   -0.3962 C   0  0  0  0  0  0  0  0  0  0  0  0
    6.7641   -1.6559    0.0127 N   0  0  0  0  0  0  0  0  0  0  0  0
    5.7041   -2.2853   -0.7871 C   0  0  0  0  0  0  0  0  0  0  0  0
    4.3206   -1.8181   -0.3332 C   0  0  0  0  0  0  0  0  0  0  0  0
    4.2025   -0.2878   -0.3830 C   0  0  0  0  0  0  0  0  0  0  0  0
    5.3686    0.3487    0.3806 C   0  0  0  0  0  0  0  0  0  0  0  0
    6.7145   -0.1930   -0.1029 C   0  0  0  0  0  0  0  0  0  0  0  0
    2.8574    0.1919    0.1770 C   0  0  0  0  0  0  0  0  0  0  0  0
    1.8122   -0.3275   -0.6443 O   0  0  0  0  0  0  0  0  0  0  0  0
    0.5152   -0.0633   -0.2835 C   0  0  0  0  0  0  0  0  0  0  0  0
    0.1416    0.7553    0.7879 C   0  0  0  0  0  0  0  0  0  0  0  0
   -1.1896    0.9897    1.1070 C   0  0  0  0  0  0  0  0  0  0  0  0
   -2.1890    0.3818    0.3384 C   0  0  0  0  0  0  0  0  0  0  0  0
   -1.8199   -0.4381   -0.7599 C   0  0  0  0  0  0  0  0  0  0  0  0
   -0.4782   -0.6621   -1.0733 C   0  0  0  0  0  0  0  0  0  0  0  0
   -0.0395   -1.4417   -2.1124 O   0  0  0  0  0  0  0  0  0  0  0  0
   -1.0142   -2.0073   -2.9772 C   0  0  0  0  0  0  0  0  0  0  0  0
   -3.5138    0.6602    0.7353 C   0  0  0  0  0  0  0  0  0  0  0  0
   -3.7922    1.4809    1.7640 N   0  0  0  0  0  0  0  0  0  0  0  0
   -2.7512    2.0034    2.4159 C   0  0  0  0  0  0  0  0  0  0  0  0
   -1.4608    1.7915    2.1401 N   0  0  0  0  0  0  0  0  0  0  0  0
   -4.5835    0.0469    0.0314 N   0  0  0  0  0  0  0  0  0  0  0  0
   -5.9657    0.3395    0.1124 C   0  0  0  0  0  0  0  0  0  0  0  0
   -6.4608    1.6273    0.3434 C   0  0  0  0  0  0  0  0  0  0  0  0
   -7.8390    1.8742    0.3490 C   0  0  0  0  0  0  0  0  0  0  0  0
   -8.7342    0.8345    0.1001 C   0  0  0  0  0  0  0  0  0  0  0  0
   -8.2680   -0.4481   -0.1631 C   0  0  0  0  0  0  0  0  0  0  0  0
   -6.8954   -0.6770   -0.1643 C   0  0  0  0  0  0  0  0  0  0  0  0
   -6.4466   -1.9150   -0.4302 F   0  0  0  0  0  0  0  0  0  0  0  0
  -10.5931    1.1746    0.1063 Br  0  0  0  0  0  0  0  0  0  0  0  0
    8.8651   -1.7258    0.2304 H   0  0  0  0  0  0  0  0  0  0  0  0
    8.1314   -3.2434   -0.2651 H   0  0  0  0  0  0  0  0  0  0  0  0
    8.3013   -1.9237   -1.4433 H   0  0  0  0  0  0  0  0  0  0  0  0
    5.7502   -3.3752   -0.6719 H   0  0  0  0  0  0  0  0  0  0  0  0
    5.8357   -2.0651   -1.8548 H   0  0  0  0  0  0  0  0  0  0  0  0
    4.1338   -2.1741    0.6886 H   0  0  0  0  0  0  0  0  0  0  0  0
    3.5594   -2.2791   -0.9737 H   0  0  0  0  0  0  0  0  0  0  0  0
    4.2630    0.0143   -1.4379 H   0  0  0  0  0  0  0  0  0  0  0  0
    5.2630    0.1542    1.4561 H   0  0  0  0  0  0  0  0  0  0  0  0
    5.3493    1.4375    0.2519 H   0  0  0  0  0  0  0  0  0  0  0  0
    6.8904    0.1255   -1.1389 H   0  0  0  0  0  0  0  0  0  0  0  0
    7.5032    0.2553    0.5136 H   0  0  0  0  0  0  0  0  0  0  0  0
    2.7393   -0.1597    1.2096 H   0  0  0  0  0  0  0  0  0  0  0  0
    2.8293    1.2881    0.1543 H   0  0  0  0  0  0  0  0  0  0  0  0
    0.8875    1.2429    1.4078 H   0  0  0  0  0  0  0  0  0  0  0  0
   -2.6046   -0.8799   -1.3647 H   0  0  0  0  0  0  0  0  0  0  0  0
   -1.6074   -1.2287   -3.4680 H   0  0  0  0  0  0  0  0  0  0  0  0
   -0.4864   -2.5644   -3.7572 H   0  0  0  0  0  0  0  0  0  0  0  0
   -1.6547   -2.7140   -2.4396 H   0  0  0  0  0  0  0  0  0  0  0  0
   -2.9735    2.6603    3.2498 H   0  0  0  0  0  0  0  0  0  0  0  0
   -4.4426   -0.9617    0.0140 H   0  0  0  0  0  0  0  0  0  0  0  0
   -5.7798    2.4569    0.5161 H   0  0  0  0  0  0  0  0  0  0  0  0
   -8.1976    2.8823    0.5422 H   0  0  0  0  0  0  0  0  0  0  0  0
   -8.9462   -1.2687   -0.3702 H   0  0  0  0  0  0  0  0  0  0  0  0
  1  2  1  0
  2  3  1  0
  3  4  1  0
  4  5  1  0
  5  6  1  0
  6  7  1  0
  5  8  1  0
  8  9  1  0
  9 10  1  0
 10 11  2  0
 11 12  1  0
 12 13  2  0
 13 14  1  0
 14 15  2  0
 15 16  1  0
 16 17  1  0
 13 18  1  0
 18 19  2  0
 19 20  1  0
 20 21  2  0
 18 22  1  0
 22 23  1  0
 23 24  2  0
 24 25  1  0
 25 26  2  0
 26 27  1  0
 27 28  2  0
 28 29  1  0
 26 30  1  0
  7  2  1  0
 15 10  1  0
 21 12  1  0
 28 23  1  0
  1 31  1  0
  1 32  1  0
  1 33  1  0
  3 34  1  0
  3 35  1  0
  4 36  1  0
  4 37  1  0
  5 38  1  0
  6 39  1  0
  6 40  1  0
  7 41  1  0
  7 42  1  0
  8 43  1  0
  8 44  1  0
 11 45  1  0
 14 46  1  0
 17 47  1  0
 17 48  1  0
 17 49  1  0
 20 50  1  0
 22 51  1  0
 24 52  1  0
 25 53  1  0
 27 54  1  0
M  END
>  <energy_abs>  (1) 
29.116299658715313

>  <SMILES>  (1) 
CN1CCC(CC1)COc2cc3c(cc2OC)c(ncn3)Nc4ccc(cc4F)Br

>  <cluster_no>  (1) 
29

>  <fda_drugs_id>  (1) 
2IVU_ZD6

>  <initial_conformation_id>  (1) 
147

>  <minimize_method>  (1) 
MMFF

$$$$
