
     RDKit          3D

 52 55  0  0  0  0  0  0  0  0999 V2000
    4.1758    1.9243    0.3853 C   0  0  0  0  0  0  0  0  0  0  0  0
    3.5956    0.5138    0.5142 C   0  0  2  0  0  0  0  0  0  0  0  0
    4.5777   -0.4293    1.2005 C   0  0  0  0  0  0  0  0  0  0  0  0
    4.3835   -0.8010    2.5514 C   0  0  0  0  0  0  0  0  0  0  0  0
    5.2563   -1.6846    3.2030 C   0  0  0  0  0  0  0  0  0  0  0  0
    6.3458   -2.2184    2.5278 C   0  0  0  0  0  0  0  0  0  0  0  0
    6.5681   -1.8524    1.2087 C   0  0  0  0  0  0  0  0  0  0  0  0
    5.7095   -0.9656    0.5438 C   0  0  0  0  0  0  0  0  0  0  0  0
    6.1213   -0.5756   -1.0949 Cl  0  0  0  0  0  0  0  0  0  0  0  0
    7.6358   -2.3696    0.5815 F   0  0  0  0  0  0  0  0  0  0  0  0
    3.0822   -0.1817    3.5134 Cl  0  0  0  0  0  0  0  0  0  0  0  0
    3.2308    0.0571   -0.8046 O   0  0  0  0  0  0  0  0  0  0  0  0
    2.0419   -0.6263   -0.7950 C   0  0  0  0  0  0  0  0  0  0  0  0
    0.8444    0.0852   -0.8664 C   0  0  0  0  0  0  0  0  0  0  0  0
   -0.3672   -0.6071   -0.8887 C   0  0  0  0  0  0  0  0  0  0  0  0
   -0.2914   -1.9994   -0.8530 C   0  0  0  0  0  0  0  0  0  0  0  0
    0.8619   -2.7157   -0.8073 N   0  0  0  0  0  0  0  0  0  0  0  0
    2.0125   -2.0223   -0.7967 C   0  0  0  0  0  0  0  0  0  0  0  0
    3.1832   -2.7771   -0.7341 N   0  0  0  0  0  0  0  0  0  0  0  0
   -1.6493    0.0744   -0.9390 C   0  0  0  0  0  0  0  0  0  0  0  0
   -2.9546   -0.3853   -0.6443 C   0  0  0  0  0  0  0  0  0  0  0  0
   -3.8886    0.5509   -0.8227 N   0  0  0  0  0  0  0  0  0  0  0  0
   -3.1925    1.6276   -1.2284 N   0  0  0  0  0  0  0  0  0  0  0  0
   -1.8464    1.3862   -1.3203 C   0  0  0  0  0  0  0  0  0  0  0  0
   -3.8601    2.8921   -1.5336 C   0  0  0  0  0  0  0  0  0  0  0  0
   -4.6529    2.8267   -2.8441 C   0  0  0  0  0  0  0  0  0  0  0  0
   -6.0443    2.2305   -2.6594 C   0  0  0  0  0  0  0  0  0  0  0  0
   -6.7810    2.9448   -1.6159 N   0  0  0  0  0  0  0  0  0  0  0  0
   -6.1056    2.8099   -0.3240 C   0  0  0  0  0  0  0  0  0  0  0  0
   -4.7076    3.4207   -0.3688 C   0  0  0  0  0  0  0  0  0  0  0  0
    5.0536    1.9550   -0.2665 H   0  0  0  0  0  0  0  0  0  0  0  0
    4.4610    2.3287    1.3617 H   0  0  0  0  0  0  0  0  0  0  0  0
    3.4373    2.5960   -0.0651 H   0  0  0  0  0  0  0  0  0  0  0  0
    2.6828    0.6229    1.1092 H   0  0  0  0  0  0  0  0  0  0  0  0
    5.0843   -1.9631    4.2410 H   0  0  0  0  0  0  0  0  0  0  0  0
    7.0252   -2.9076    3.0190 H   0  0  0  0  0  0  0  0  0  0  0  0
    0.8775    1.1691   -0.8939 H   0  0  0  0  0  0  0  0  0  0  0  0
   -1.1847   -2.6184   -0.8711 H   0  0  0  0  0  0  0  0  0  0  0  0
    3.8475   -2.4589   -1.4336 H   0  0  0  0  0  0  0  0  0  0  0  0
    2.9245   -3.7523   -0.8483 H   0  0  0  0  0  0  0  0  0  0  0  0
   -3.2680   -1.3634   -0.3022 H   0  0  0  0  0  0  0  0  0  0  0  0
   -1.1662    2.1583   -1.6516 H   0  0  0  0  0  0  0  0  0  0  0  0
   -3.0379    3.6061   -1.6827 H   0  0  0  0  0  0  0  0  0  0  0  0
   -4.7620    3.8479   -3.2342 H   0  0  0  0  0  0  0  0  0  0  0  0
   -4.1053    2.2588   -3.6060 H   0  0  0  0  0  0  0  0  0  0  0  0
   -6.5956    2.3256   -3.6017 H   0  0  0  0  0  0  0  0  0  0  0  0
   -5.9942    1.1593   -2.4351 H   0  0  0  0  0  0  0  0  0  0  0  0
   -7.7128    2.5345   -1.5379 H   0  0  0  0  0  0  0  0  0  0  0  0
   -6.6954    3.3387    0.4336 H   0  0  0  0  0  0  0  0  0  0  0  0
   -6.0768    1.7600   -0.0131 H   0  0  0  0  0  0  0  0  0  0  0  0
   -4.8112    4.5083   -0.4848 H   0  0  0  0  0  0  0  0  0  0  0  0
   -4.2008    3.2563    0.5901 H   0  0  0  0  0  0  0  0  0  0  0  0
  1  2  1  0
  2  3  1  0
  3  4  2  0
  4  5  1  0
  5  6  2  0
  6  7  1  0
  7  8  2  0
  8  9  1  0
  7 10  1  0
  4 11  1  0
  2 12  1  0
 12 13  1  0
 13 14  2  0
 14 15  1  0
 15 16  2  0
 16 17  1  0
 17 18  2  0
 18 19  1  0
 15 20  1  0
 20 21  1  0
 21 22  2  0
 22 23  1  0
 23 24  1  0
 23 25  1  0
 25 26  1  0
 26 27  1  0
 27 28  1  0
 28 29  1  0
 29 30  1  0
  8  3  1  0
 18 13  1  0
 24 20  2  0
 30 25  1  0
  1 31  1  0
  1 32  1  0
  1 33  1  0
  2 34  1  1
  5 35  1  0
  6 36  1  0
 14 37  1  0
 16 38  1  0
 19 39  1  0
 19 40  1  0
 21 41  1  0
 24 42  1  0
 25 43  1  0
 26 44  1  0
 26 45  1  0
 27 46  1  0
 27 47  1  0
 28 48  1  0
 29 49  1  0
 29 50  1  0
 30 51  1  0
 30 52  1  0
M  END
>  <energy_abs>  (1) 
20.03737476952903

>  <SMILES>  (1) 
C[C@H](c1c(ccc(c1Cl)F)Cl)Oc2cc(cnc2N)c3cnn(c3)C4CCNCC4

>  <cluster_no>  (1) 
203

>  <fda_drugs_id>  (1) 
2XP2_VGH

>  <initial_conformation_id>  (1) 
81

>  <minimize_method>  (1) 
MMFF

$$$$
