
     RDKit          3D

 70 75  0  0  0  0  0  0  0  0999 V2000
   -1.0628   -3.5191   -1.6574 C   0  0  0  0  0  0  0  0  0  0  0  0
   -0.5589   -3.2086   -0.2556 C   0  0  0  0  0  0  0  0  0  0  0  0
    0.2842   -1.9526   -0.2221 C   0  0  0  0  0  0  0  0  0  0  0  0
    1.6785   -2.0721   -0.3370 C   0  0  0  0  0  0  0  0  0  0  0  0
    2.5112   -0.9421   -0.3373 C   0  0  0  0  0  0  0  0  0  0  0  0
    1.9550    0.3520   -0.2241 C   0  0  0  0  0  0  0  0  0  0  0  0
    0.5503    0.4525   -0.1148 C   0  0  0  0  0  0  0  0  0  0  0  0
   -0.2934   -0.6739   -0.1195 C   0  0  0  0  0  0  0  0  0  0  0  0
   -1.6923   -0.5554   -0.0012 N   0  0  0  0  0  0  0  0  0  0  0  0
   -2.1076   -0.2948    1.3852 C   0  0  0  0  0  0  0  0  0  0  0  0
   -3.6217   -0.4848    1.4977 C   0  0  0  0  0  0  0  0  0  0  0  0
   -4.3581    0.4192    0.4903 C   0  0  0  0  0  0  0  0  0  0  0  0
   -3.8325    0.1537   -0.9350 C   0  0  0  0  0  0  0  0  0  0  0  0
   -2.3155    0.3365   -0.9889 C   0  0  0  0  0  0  0  0  0  0  0  0
   -5.8353    0.3604    0.5196 N   0  0  0  0  0  0  0  0  0  0  0  0
   -6.4041    1.0096    1.7197 C   0  0  0  0  0  0  0  0  0  0  0  0
   -7.9409    1.0151    1.6722 C   0  0  0  0  0  0  0  0  0  0  0  0
   -8.4605   -0.3159    1.5606 O   0  0  0  0  0  0  0  0  0  0  0  0
   -7.9483   -0.9430    0.3770 C   0  0  0  0  0  0  0  0  0  0  0  0
   -6.4103   -0.9950    0.3948 C   0  0  0  0  0  0  0  0  0  0  0  0
    2.8213    1.6310   -0.2187 C   0  0  0  0  0  0  0  0  0  0  0  0
    4.2829    1.2754   -0.3443 C   0  0  0  0  0  0  0  0  0  0  0  0
    4.8186    0.0088   -0.4534 C   0  0  0  0  0  0  0  0  0  0  0  0
    6.2336    0.1432   -0.5462 C   0  0  0  0  0  0  0  0  0  0  0  0
    7.3033   -0.7662   -0.6718 C   0  0  0  0  0  0  0  0  0  0  0  0
    8.6168   -0.2842   -0.7375 C   0  0  0  0  0  0  0  0  0  0  0  0
    8.8761    1.0870   -0.6801 C   0  0  0  0  0  0  0  0  0  0  0  0
    7.8271    2.0106   -0.5555 C   0  0  0  0  0  0  0  0  0  0  0  0
    6.5200    1.5086   -0.4910 C   0  0  0  0  0  0  0  0  0  0  0  0
    5.3200    2.1738   -0.3697 N   0  0  0  0  0  0  0  0  0  0  0  0
   10.2284    1.5605   -0.7489 C   0  0  0  0  0  0  0  0  0  0  0  0
   11.3200    1.9519   -0.8039 N   0  0  0  0  0  0  0  0  0  0  0  0
    3.9859   -1.1764   -0.4597 C   0  0  0  0  0  0  0  0  0  0  0  0
    4.4435   -2.3098   -0.5565 O   0  0  0  0  0  0  0  0  0  0  0  0
    2.4234    2.5288   -1.4111 C   0  0  0  0  0  0  0  0  0  0  0  0
    2.6075    2.3962    1.1059 C   0  0  0  0  0  0  0  0  0  0  0  0
   -1.6907   -2.7112   -2.0476 H   0  0  0  0  0  0  0  0  0  0  0  0
   -1.6600   -4.4366   -1.6493 H   0  0  0  0  0  0  0  0  0  0  0  0
   -0.2300   -3.6625   -2.3546 H   0  0  0  0  0  0  0  0  0  0  0  0
    0.0309   -4.0574    0.1129 H   0  0  0  0  0  0  0  0  0  0  0  0
   -1.4036   -3.1206    0.4371 H   0  0  0  0  0  0  0  0  0  0  0  0
    2.1216   -3.0634   -0.4306 H   0  0  0  0  0  0  0  0  0  0  0  0
    0.0951    1.4344   -0.0140 H   0  0  0  0  0  0  0  0  0  0  0  0
   -1.8327    0.7233    1.6908 H   0  0  0  0  0  0  0  0  0  0  0  0
   -1.6178   -0.9936    2.0753 H   0  0  0  0  0  0  0  0  0  0  0  0
   -3.9309   -0.2605    2.5242 H   0  0  0  0  0  0  0  0  0  0  0  0
   -3.8543   -1.5399    1.3075 H   0  0  0  0  0  0  0  0  0  0  0  0
   -4.0806    1.4585    0.7197 H   0  0  0  0  0  0  0  0  0  0  0  0
   -4.0750   -0.8671   -1.2545 H   0  0  0  0  0  0  0  0  0  0  0  0
   -4.3043    0.8399   -1.6487 H   0  0  0  0  0  0  0  0  0  0  0  0
   -1.9666    0.0899   -1.9995 H   0  0  0  0  0  0  0  0  0  0  0  0
   -2.0660    1.3871   -0.7933 H   0  0  0  0  0  0  0  0  0  0  0  0
   -6.0837    0.4812    2.6257 H   0  0  0  0  0  0  0  0  0  0  0  0
   -6.0557    2.0464    1.7888 H   0  0  0  0  0  0  0  0  0  0  0  0
   -8.3380    1.4490    2.5954 H   0  0  0  0  0  0  0  0  0  0  0  0
   -8.3108    1.6199    0.8355 H   0  0  0  0  0  0  0  0  0  0  0  0
   -8.3519   -1.9598    0.3420 H   0  0  0  0  0  0  0  0  0  0  0  0
   -8.3184   -0.4076   -0.5058 H   0  0  0  0  0  0  0  0  0  0  0  0
   -6.1004   -1.6200    1.2409 H   0  0  0  0  0  0  0  0  0  0  0  0
   -6.0763   -1.4779   -0.5286 H   0  0  0  0  0  0  0  0  0  0  0  0
    7.1086   -1.8358   -0.7174 H   0  0  0  0  0  0  0  0  0  0  0  0
    9.4337   -0.9975   -0.8343 H   0  0  0  0  0  0  0  0  0  0  0  0
    8.0212    3.0787   -0.5102 H   0  0  0  0  0  0  0  0  0  0  0  0
    5.2296    3.1793   -0.3082 H   0  0  0  0  0  0  0  0  0  0  0  0
    2.5514    2.0020   -2.3652 H   0  0  0  0  0  0  0  0  0  0  0  0
    1.3785    2.8532   -1.3532 H   0  0  0  0  0  0  0  0  0  0  0  0
    3.0364    3.4370   -1.4546 H   0  0  0  0  0  0  0  0  0  0  0  0
    1.5682    2.7182    1.2341 H   0  0  0  0  0  0  0  0  0  0  0  0
    2.8677    1.7734    1.9709 H   0  0  0  0  0  0  0  0  0  0  0  0
    3.2278    3.2992    1.1546 H   0  0  0  0  0  0  0  0  0  0  0  0
  1  2  1  0
  2  3  1  0
  3  4  2  0
  4  5  1  0
  5  6  2  0
  6  7  1  0
  7  8  2  0
  8  9  1  0
  9 10  1  0
 10 11  1  0
 11 12  1  0
 12 13  1  0
 13 14  1  0
 12 15  1  0
 15 16  1  0
 16 17  1  0
 17 18  1  0
 18 19  1  0
 19 20  1  0
  6 21  1  0
 21 22  1  0
 22 23  2  0
 23 24  1  0
 24 25  2  0
 25 26  1  0
 26 27  2  0
 27 28  1  0
 28 29  2  0
 29 30  1  0
 27 31  1  0
 31 32  3  0
 23 33  1  0
 33 34  2  0
 21 35  1  0
 21 36  1  0
  8  3  1  0
 33  5  1  0
 14  9  1  0
 20 15  1  0
 30 22  1  0
 29 24  1  0
  1 37  1  0
  1 38  1  0
  1 39  1  0
  2 40  1  0
  2 41  1  0
  4 42  1  0
  7 43  1  0
 10 44  1  0
 10 45  1  0
 11 46  1  0
 11 47  1  0
 12 48  1  0
 13 49  1  0
 13 50  1  0
 14 51  1  0
 14 52  1  0
 16 53  1  0
 16 54  1  0
 17 55  1  0
 17 56  1  0
 19 57  1  0
 19 58  1  0
 20 59  1  0
 20 60  1  0
 25 61  1  0
 26 62  1  0
 28 63  1  0
 30 64  1  0
 35 65  1  0
 35 66  1  0
 35 67  1  0
 36 68  1  0
 36 69  1  0
 36 70  1  0
M  END
>  <energy_abs>  (1) 
162.01640402178398

>  <SMILES>  (1) 
CCc1cc2c(cc1N3CCC(CC3)N4CCOCC4)C(c5c(c6ccc(cc6[nH]5)C#N)C2=O)(C)C

>  <cluster_no>  (1) 
116

>  <fda_drugs_id>  (1) 
3AOX_EMH

>  <initial_conformation_id>  (1) 
188

>  <minimize_method>  (1) 
MMFF

$$$$
