
     RDKit          3D

 73 77  0  0  0  0  0  0  0  0999 V2000
   10.0251    1.1812   -0.9512 C   0  0  0  0  0  0  0  0  0  0  0  0
    8.9849    0.8102    0.0057 N   0  0  0  0  0  0  0  0  0  0  0  0
    8.6383    1.9514    0.8722 C   0  0  0  0  0  0  0  0  0  0  0  0
    7.4919    1.6094    1.8509 C   0  0  0  0  0  0  0  0  0  0  0  0
    6.2729    1.1576    1.1481 N   0  0  0  0  0  0  0  0  0  0  0  0
    6.6223    0.0063    0.2831 C   0  0  0  0  0  0  0  0  0  0  0  0
    7.7740    0.3395   -0.6943 C   0  0  0  0  0  0  0  0  0  0  0  0
    5.2329    0.7856    2.1338 C   0  0  0  0  0  0  0  0  0  0  0  0
    3.8948    0.4303    1.4594 C   0  0  0  0  0  0  0  0  0  0  0  0
    3.5456   -0.7550    1.4752 O   0  0  0  0  0  0  0  0  0  0  0  0
    3.1665    1.4710    0.8497 N   0  0  0  0  0  0  0  0  0  0  0  0
    3.7502    2.8013    0.6668 C   0  0  0  0  0  0  0  0  0  0  0  0
    1.8876    1.2256    0.2287 C   0  0  0  0  0  0  0  0  0  0  0  0
    1.4395    2.0123   -0.8443 C   0  0  0  0  0  0  0  0  0  0  0  0
    0.1874    1.7945   -1.4355 C   0  0  0  0  0  0  0  0  0  0  0  0
   -0.6745    0.8122   -0.9484 C   0  0  0  0  0  0  0  0  0  0  0  0
   -0.2224   -0.0018    0.0890 C   0  0  0  0  0  0  0  0  0  0  0  0
    1.0305    0.2132    0.6797 C   0  0  0  0  0  0  0  0  0  0  0  0
   -1.8899    0.5723   -1.6322 N   0  0  0  0  0  0  0  0  0  0  0  0
   -3.0982    0.2356   -1.0083 C   0  0  0  0  0  0  0  0  0  0  0  0
   -3.9614   -0.6971   -1.4704 C   0  0  0  0  0  0  0  0  0  0  0  0
   -5.3067   -1.1283   -1.0470 C   0  0  0  0  0  0  0  0  0  0  0  0
   -6.2076   -0.7012   -0.0868 C   0  0  0  0  0  0  0  0  0  0  0  0
   -7.4442   -1.3566    0.0174 C   0  0  0  0  0  0  0  0  0  0  0  0
   -7.7785   -2.4258   -0.8428 C   0  0  0  0  0  0  0  0  0  0  0  0
   -6.8692   -2.8468   -1.8214 C   0  0  0  0  0  0  0  0  0  0  0  0
   -5.6609   -2.1815   -1.9008 C   0  0  0  0  0  0  0  0  0  0  0  0
   -4.6526   -2.4280   -2.8254 N   0  0  0  0  0  0  0  0  0  0  0  0
   -3.5909   -1.5603   -2.6536 C   0  0  0  0  0  0  0  0  0  0  0  0
   -2.5702   -1.5079   -3.3155 O   0  0  0  0  0  0  0  0  0  0  0  0
   -9.0845   -3.1333   -0.7594 C   0  0  0  0  0  0  0  0  0  0  0  0
   -9.3623   -4.1103   -1.4382 O   0  0  0  0  0  0  0  0  0  0  0  0
   -9.8954   -2.5376    0.1504 O   0  0  0  0  0  0  0  0  0  0  0  0
  -11.1789   -3.1520    0.2728 C   0  0  0  0  0  0  0  0  0  0  0  0
   -3.4624    1.0689    0.1632 C   0  0  0  0  0  0  0  0  0  0  0  0
   -3.3904    0.5588    1.4681 C   0  0  0  0  0  0  0  0  0  0  0  0
   -3.7336    1.3582    2.5599 C   0  0  0  0  0  0  0  0  0  0  0  0
   -4.1519    2.6721    2.3567 C   0  0  0  0  0  0  0  0  0  0  0  0
   -4.2240    3.1901    1.0640 C   0  0  0  0  0  0  0  0  0  0  0  0
   -3.8771    2.3936   -0.0287 C   0  0  0  0  0  0  0  0  0  0  0  0
   10.9339    1.4961   -0.4272 H   0  0  0  0  0  0  0  0  0  0  0  0
   10.3019    0.3207   -1.5703 H   0  0  0  0  0  0  0  0  0  0  0  0
    9.7109    1.9956   -1.6139 H   0  0  0  0  0  0  0  0  0  0  0  0
    9.5170    2.2451    1.4596 H   0  0  0  0  0  0  0  0  0  0  0  0
    8.3447    2.8211    0.2685 H   0  0  0  0  0  0  0  0  0  0  0  0
    7.2611    2.5098    2.4326 H   0  0  0  0  0  0  0  0  0  0  0  0
    7.8386    0.8436    2.5576 H   0  0  0  0  0  0  0  0  0  0  0  0
    6.9110   -0.8596    0.8935 H   0  0  0  0  0  0  0  0  0  0  0  0
    5.7544   -0.2896   -0.3180 H   0  0  0  0  0  0  0  0  0  0  0  0
    8.0125   -0.5669   -1.2650 H   0  0  0  0  0  0  0  0  0  0  0  0
    7.4242    1.0956   -1.4109 H   0  0  0  0  0  0  0  0  0  0  0  0
    5.5521   -0.0784    2.7318 H   0  0  0  0  0  0  0  0  0  0  0  0
    5.0481    1.5953    2.8494 H   0  0  0  0  0  0  0  0  0  0  0  0
    4.4157    3.0730    1.4881 H   0  0  0  0  0  0  0  0  0  0  0  0
    4.3148    2.8175   -0.2706 H   0  0  0  0  0  0  0  0  0  0  0  0
    2.9677    3.5670    0.6542 H   0  0  0  0  0  0  0  0  0  0  0  0
    2.0639    2.7882   -1.2778 H   0  0  0  0  0  0  0  0  0  0  0  0
   -0.1204    2.4094   -2.2774 H   0  0  0  0  0  0  0  0  0  0  0  0
   -0.8371   -0.8190    0.4547 H   0  0  0  0  0  0  0  0  0  0  0  0
    1.3002   -0.4246    1.5165 H   0  0  0  0  0  0  0  0  0  0  0  0
   -1.6960   -0.0516   -2.4271 H   0  0  0  0  0  0  0  0  0  0  0  0
   -5.9947    0.1313    0.5745 H   0  0  0  0  0  0  0  0  0  0  0  0
   -8.1470   -1.0164    0.7764 H   0  0  0  0  0  0  0  0  0  0  0  0
   -7.1103   -3.6592   -2.4996 H   0  0  0  0  0  0  0  0  0  0  0  0
   -4.6756   -3.1223   -3.5572 H   0  0  0  0  0  0  0  0  0  0  0  0
  -11.7573   -2.5833    1.0062 H   0  0  0  0  0  0  0  0  0  0  0  0
  -11.0782   -4.1811    0.6325 H   0  0  0  0  0  0  0  0  0  0  0  0
  -11.7121   -3.1245   -0.6833 H   0  0  0  0  0  0  0  0  0  0  0  0
   -3.0603   -0.4621    1.6405 H   0  0  0  0  0  0  0  0  0  0  0  0
   -3.6655    0.9574    3.5675 H   0  0  0  0  0  0  0  0  0  0  0  0
   -4.4111    3.2978    3.2067 H   0  0  0  0  0  0  0  0  0  0  0  0
   -4.5404    4.2174    0.9056 H   0  0  0  0  0  0  0  0  0  0  0  0
   -3.9221    2.8093   -1.0330 H   0  0  0  0  0  0  0  0  0  0  0  0
  1  2  1  0
  2  3  1  0
  3  4  1  0
  4  5  1  0
  5  6  1  0
  6  7  1  0
  5  8  1  0
  8  9  1  0
  9 10  2  0
  9 11  1  0
 11 12  1  0
 11 13  1  0
 13 14  2  0
 14 15  1  0
 15 16  2  0
 16 17  1  0
 17 18  2  0
 16 19  1  0
 19 20  1  0
 20 21  2  0
 21 22  1  0
 22 23  2  0
 23 24  1  0
 24 25  2  0
 25 26  1  0
 26 27  2  0
 27 28  1  0
 28 29  1  0
 29 30  2  0
 25 31  1  0
 31 32  2  0
 31 33  1  0
 33 34  1  0
 20 35  1  0
 35 36  2  0
 36 37  1  0
 37 38  2  0
 38 39  1  0
 39 40  2  0
  7  2  1  0
 18 13  1  0
 29 21  1  0
 27 22  1  0
 40 35  1  0
  1 41  1  0
  1 42  1  0
  1 43  1  0
  3 44  1  0
  3 45  1  0
  4 46  1  0
  4 47  1  0
  6 48  1  0
  6 49  1  0
  7 50  1  0
  7 51  1  0
  8 52  1  0
  8 53  1  0
 12 54  1  0
 12 55  1  0
 12 56  1  0
 14 57  1  0
 15 58  1  0
 17 59  1  0
 18 60  1  0
 19 61  1  0
 23 62  1  0
 24 63  1  0
 26 64  1  0
 28 65  1  0
 34 66  1  0
 34 67  1  0
 34 68  1  0
 36 69  1  0
 37 70  1  0
 38 71  1  0
 39 72  1  0
 40 73  1  0
M  END
>  <energy_abs>  (1) 
186.94534668223665

>  <SMILES>  (1) 
CN1CCN(CC1)CC(=O)N(C)c2ccc(cc2)N/C(=C\3/c4ccc(cc4NC3=O)C(=O)OC)/c5ccccc5

>  <cluster_no>  (1) 
185

>  <fda_drugs_id>  (1) 
3C7Q_XIN

>  <initial_conformation_id>  (1) 
115

>  <minimize_method>  (1) 
MMFF

$$$$
