
     RDKit          3D

 51 54  0  0  0  0  0  0  0  0999 V2000
   -5.3887    2.6921    0.4732 C   0  0  0  0  0  0  0  0  0  0  0  0
   -5.1276    1.4768    1.3473 C   0  0  0  0  0  0  0  0  0  0  0  0
   -4.7136    0.2711    0.5128 C   0  0  0  0  0  0  0  0  0  0  0  0
   -4.4084   -1.1561    1.5510 S   0  0  0  0  0  6  0  0  0  0  0  0
   -5.6697   -1.5791    2.1214 O   0  0  0  0  0  0  0  0  0  0  0  0
   -3.2468   -0.9156    2.3796 O   0  0  0  0  0  0  0  0  0  0  0  0
   -4.0443   -2.3382    0.3860 N   0  0  0  0  0  0  0  0  0  0  0  0
   -2.7052   -2.8462    0.3994 C   0  0  0  0  0  0  0  0  0  0  0  0
   -2.4750   -4.1388    0.8801 C   0  0  0  0  0  0  0  0  0  0  0  0
   -1.1671   -4.6233    0.9714 C   0  0  0  0  0  0  0  0  0  0  0  0
   -0.0981   -3.8106    0.5985 C   0  0  0  0  0  0  0  0  0  0  0  0
   -0.3242   -2.5207    0.1338 C   0  0  0  0  0  0  0  0  0  0  0  0
   -1.6240   -2.0428    0.0191 C   0  0  0  0  0  0  0  0  0  0  0  0
   -1.8484   -0.8078   -0.4560 F   0  0  0  0  0  0  0  0  0  0  0  0
    0.8066   -1.6767   -0.2496 C   0  0  0  0  0  0  0  0  0  0  0  0
    1.4392   -1.9908   -1.2543 O   0  0  0  0  0  0  0  0  0  0  0  0
    1.1260   -0.5096    0.5699 C   0  0  0  0  0  0  0  0  0  0  0  0
    0.5029   -0.1176    1.7481 C   0  0  0  0  0  0  0  0  0  0  0  0
    1.1021    1.0329    2.1955 N   0  0  0  0  0  0  0  0  0  0  0  0
    2.1054    1.3932    1.3437 C   0  0  0  0  0  0  0  0  0  0  0  0
    2.1565    0.4567    0.3195 C   0  0  0  0  0  0  0  0  0  0  0  0
    3.1411    0.6496   -0.6695 C   0  0  0  0  0  0  0  0  0  0  0  0
    3.9996    1.7567   -0.5721 C   0  0  0  0  0  0  0  0  0  0  0  0
    3.8087    2.6081    0.5224 C   0  0  0  0  0  0  0  0  0  0  0  0
    2.8841    2.4758    1.5081 N   0  0  0  0  0  0  0  0  0  0  0  0
    5.0465    2.0084   -1.5755 C   0  0  0  0  0  0  0  0  0  0  0  0
    6.3746    2.2656   -1.1913 C   0  0  0  0  0  0  0  0  0  0  0  0
    7.3690    2.5063   -2.1452 C   0  0  0  0  0  0  0  0  0  0  0  0
    7.0471    2.4922   -3.4990 C   0  0  0  0  0  0  0  0  0  0  0  0
    5.7412    2.2381   -3.9064 C   0  0  0  0  0  0  0  0  0  0  0  0
    4.7494    1.9970   -2.9501 C   0  0  0  0  0  0  0  0  0  0  0  0
    8.2686    2.7894   -4.6728 Cl  0  0  0  0  0  0  0  0  0  0  0  0
    1.1474   -4.2874    0.7245 F   0  0  0  0  0  0  0  0  0  0  0  0
   -6.1935    2.4949   -0.2422 H   0  0  0  0  0  0  0  0  0  0  0  0
   -4.4911    2.9723   -0.0873 H   0  0  0  0  0  0  0  0  0  0  0  0
   -5.6844    3.5465    1.0900 H   0  0  0  0  0  0  0  0  0  0  0  0
   -6.0312    1.2435    1.9223 H   0  0  0  0  0  0  0  0  0  0  0  0
   -4.3434    1.7162    2.0747 H   0  0  0  0  0  0  0  0  0  0  0  0
   -5.5052   -0.0026   -0.1917 H   0  0  0  0  0  0  0  0  0  0  0  0
   -3.7954    0.4865   -0.0387 H   0  0  0  0  0  0  0  0  0  0  0  0
   -4.7874   -3.0405    0.3865 H   0  0  0  0  0  0  0  0  0  0  0  0
   -3.2993   -4.7705    1.2018 H   0  0  0  0  0  0  0  0  0  0  0  0
   -0.9720   -5.6245    1.3467 H   0  0  0  0  0  0  0  0  0  0  0  0
   -0.3182   -0.5438    2.3116 H   0  0  0  0  0  0  0  0  0  0  0  0
    0.8592    1.5539    3.0257 H   0  0  0  0  0  0  0  0  0  0  0  0
    3.2341   -0.0635   -1.4847 H   0  0  0  0  0  0  0  0  0  0  0  0
    4.4349    3.4916    0.6398 H   0  0  0  0  0  0  0  0  0  0  0  0
    6.6524    2.2651   -0.1386 H   0  0  0  0  0  0  0  0  0  0  0  0
    8.3889    2.6985   -1.8234 H   0  0  0  0  0  0  0  0  0  0  0  0
    5.4849    2.2258   -4.9624 H   0  0  0  0  0  0  0  0  0  0  0  0
    3.7321    1.8074   -3.2894 H   0  0  0  0  0  0  0  0  0  0  0  0
  1  2  1  0
  2  3  1  0
  3  4  1  0
  4  5  2  0
  4  6  2  0
  4  7  1  0
  7  8  1  0
  8  9  2  0
  9 10  1  0
 10 11  2  0
 11 12  1  0
 12 13  2  0
 13 14  1  0
 12 15  1  0
 15 16  2  0
 15 17  1  0
 17 18  2  0
 18 19  1  0
 19 20  1  0
 20 21  2  0
 21 22  1  0
 22 23  2  0
 23 24  1  0
 24 25  2  0
 23 26  1  0
 26 27  2  0
 27 28  1  0
 28 29  2  0
 29 30  1  0
 30 31  2  0
 29 32  1  0
 11 33  1  0
 13  8  1  0
 21 17  1  0
 25 20  1  0
 31 26  1  0
  1 34  1  0
  1 35  1  0
  1 36  1  0
  2 37  1  0
  2 38  1  0
  3 39  1  0
  3 40  1  0
  7 41  1  0
  9 42  1  0
 10 43  1  0
 18 44  1  0
 19 45  1  0
 22 46  1  0
 24 47  1  0
 27 48  1  0
 28 49  1  0
 30 50  1  0
 31 51  1  0
M  END
>  <energy_abs>  (1) 
18.251818993025985

>  <SMILES>  (1) 
CCCS(=O)(=O)Nc1ccc(c(c1F)C(=O)c2c[nH]c3c2cc(cn3)c4ccc(cc4)Cl)F

>  <cluster_no>  (1) 
47

>  <fda_drugs_id>  (1) 
3OG7_032

>  <initial_conformation_id>  (1) 
276

>  <minimize_method>  (1) 
MMFF

$$$$
