
     RDKit          3D

 56 58  0  0  0  0  0  0  0  0999 V2000
    3.6799    3.6702    0.0718 C   0  0  0  0  0  0  0  0  0  0  0  0
    4.5129    2.6701   -0.7249 C   0  0  0  0  0  0  0  0  0  0  0  0
    4.5461    1.3427   -0.0793 N   0  0  0  0  0  0  0  0  0  0  0  0
    5.4895    1.3356    1.0562 C   0  0  0  0  0  0  0  0  0  0  0  0
    5.1947    0.2042    2.0370 C   0  0  0  0  0  0  0  0  0  0  0  0
    4.9148    0.2939   -1.0687 C   0  0  0  0  0  0  0  0  0  0  0  0
    3.7633   -0.0533   -2.0306 C   0  0  0  0  0  0  0  0  0  0  0  0
    2.5234   -0.2299   -1.3052 N   0  0  0  0  0  0  0  0  0  0  0  0
    1.3857   -0.6958   -1.9166 C   0  0  0  0  0  0  0  0  0  0  0  0
    1.3831   -1.1100   -3.0727 O   0  0  0  0  0  0  0  0  0  0  0  0
    0.1649   -0.6070   -1.1039 C   0  0  0  0  0  0  0  0  0  0  0  0
   -1.1829   -0.4941   -1.6083 C   0  0  0  0  0  0  0  0  0  0  0  0
   -2.0503   -0.4512   -0.5204 C   0  0  0  0  0  0  0  0  0  0  0  0
   -1.2705   -0.5258    0.6042 N   0  0  0  0  0  0  0  0  0  0  0  0
    0.0593   -0.6478    0.2817 C   0  0  0  0  0  0  0  0  0  0  0  0
    1.0677   -0.8197    1.3628 C   0  0  0  0  0  0  0  0  0  0  0  0
   -3.4708   -0.3607   -0.4582 C   0  0  0  0  0  0  0  0  0  0  0  0
   -4.2824   -0.2844    0.6101 C   0  0  0  0  0  0  0  0  0  0  0  0
   -5.7524   -0.1910    0.4943 C   0  0  0  0  0  0  0  0  0  0  0  0
   -6.6234   -0.1607   -0.5814 C   0  0  0  0  0  0  0  0  0  0  0  0
   -7.9880   -0.0640   -0.3083 C   0  0  0  0  0  0  0  0  0  0  0  0
   -8.4791    0.0009    1.0038 C   0  0  0  0  0  0  0  0  0  0  0  0
   -7.5988   -0.0301    2.0865 C   0  0  0  0  0  0  0  0  0  0  0  0
   -6.2502   -0.1255    1.8008 C   0  0  0  0  0  0  0  0  0  0  0  0
   -5.2105   -0.1712    2.7196 N   0  0  0  0  0  0  0  0  0  0  0  0
   -3.9807   -0.2697    2.0909 C   0  0  0  0  0  0  0  0  0  0  0  0
   -2.8990   -0.3335    2.6440 O   0  0  0  0  0  0  0  0  0  0  0  0
   -8.8559   -0.0322   -1.3282 F   0  0  0  0  0  0  0  0  0  0  0  0
   -1.5467   -0.4373   -3.0560 C   0  0  0  0  0  0  0  0  0  0  0  0
    4.1297    3.9111    1.0389 H   0  0  0  0  0  0  0  0  0  0  0  0
    3.5881    4.6066   -0.4888 H   0  0  0  0  0  0  0  0  0  0  0  0
    2.6692    3.2862    0.2477 H   0  0  0  0  0  0  0  0  0  0  0  0
    5.5262    3.0589   -0.8859 H   0  0  0  0  0  0  0  0  0  0  0  0
    4.0442    2.6061   -1.7128 H   0  0  0  0  0  0  0  0  0  0  0  0
    6.5285    1.2771    0.7083 H   0  0  0  0  0  0  0  0  0  0  0  0
    5.4084    2.2644    1.6312 H   0  0  0  0  0  0  0  0  0  0  0  0
    4.1571    0.2470    2.3848 H   0  0  0  0  0  0  0  0  0  0  0  0
    5.8441    0.2950    2.9142 H   0  0  0  0  0  0  0  0  0  0  0  0
    5.3710   -0.7829    1.6012 H   0  0  0  0  0  0  0  0  0  0  0  0
    5.1586   -0.6362   -0.5430 H   0  0  0  0  0  0  0  0  0  0  0  0
    5.8105    0.5768   -1.6357 H   0  0  0  0  0  0  0  0  0  0  0  0
    3.6067    0.7356   -2.7736 H   0  0  0  0  0  0  0  0  0  0  0  0
    3.9893   -0.9761   -2.5766 H   0  0  0  0  0  0  0  0  0  0  0  0
    2.4134    0.3583   -0.4881 H   0  0  0  0  0  0  0  0  0  0  0  0
   -1.6196   -0.5196    1.5577 H   0  0  0  0  0  0  0  0  0  0  0  0
    1.5424    0.1382    1.5970 H   0  0  0  0  0  0  0  0  0  0  0  0
    1.8419   -1.5349    1.0682 H   0  0  0  0  0  0  0  0  0  0  0  0
    0.6061   -1.1994    2.2807 H   0  0  0  0  0  0  0  0  0  0  0  0
   -3.9487   -0.3548   -1.4350 H   0  0  0  0  0  0  0  0  0  0  0  0
   -6.2847   -0.2088   -1.6089 H   0  0  0  0  0  0  0  0  0  0  0  0
   -9.5509    0.0752    1.1650 H   0  0  0  0  0  0  0  0  0  0  0  0
   -7.9664    0.0190    3.1050 H   0  0  0  0  0  0  0  0  0  0  0  0
   -5.3064   -0.1434    3.7234 H   0  0  0  0  0  0  0  0  0  0  0  0
   -2.5727   -0.0918   -3.2095 H   0  0  0  0  0  0  0  0  0  0  0  0
   -0.8918    0.2570   -3.5924 H   0  0  0  0  0  0  0  0  0  0  0  0
   -1.4513   -1.4296   -3.5080 H   0  0  0  0  0  0  0  0  0  0  0  0
  1  2  1  0
  2  3  1  0
  3  4  1  0
  4  5  1  0
  3  6  1  0
  6  7  1  0
  7  8  1  0
  8  9  1  0
  9 10  2  0
  9 11  1  0
 11 12  1  0
 12 13  2  0
 13 14  1  0
 14 15  1  0
 15 16  1  0
 13 17  1  0
 17 18  2  0
 18 19  1  0
 19 20  2  0
 20 21  1  0
 21 22  2  0
 22 23  1  0
 23 24  2  0
 24 25  1  0
 25 26  1  0
 26 27  2  0
 21 28  1  0
 12 29  1  0
 15 11  2  0
 26 18  1  0
 24 19  1  0
  1 30  1  0
  1 31  1  0
  1 32  1  0
  2 33  1  0
  2 34  1  0
  4 35  1  0
  4 36  1  0
  5 37  1  0
  5 38  1  0
  5 39  1  0
  6 40  1  0
  6 41  1  0
  7 42  1  0
  7 43  1  0
  8 44  1  0
 14 45  1  0
 16 46  1  0
 16 47  1  0
 16 48  1  0
 17 49  1  0
 20 50  1  0
 22 51  1  0
 23 52  1  0
 25 53  1  0
 29 54  1  0
 29 55  1  0
 29 56  1  0
M  END
>  <energy_abs>  (1) 
24.55312764447184

>  <SMILES>  (1) 
CCN(CC)CCNC(=O)c1c(c([nH]c1C)/C=C\2/c3cc(ccc3NC2=O)F)C

>  <cluster_no>  (1) 
131

>  <fda_drugs_id>  (1) 
3TI1_B49

>  <initial_conformation_id>  (1) 
161

>  <minimize_method>  (1) 
MMFF

$$$$
