
     RDKit          3D

 49 52  0  0  0  0  0  0  0  0999 V2000
   -7.7402    0.8526   -1.6239 C   0  0  0  0  0  0  0  0  0  0  0  0
   -6.8890   -0.0742   -0.9550 O   0  0  0  0  0  0  0  0  0  0  0  0
   -5.6250    0.3415   -0.6145 C   0  0  0  0  0  0  0  0  0  0  0  0
   -5.1113    1.6020   -0.9622 C   0  0  0  0  0  0  0  0  0  0  0  0
   -3.8305    2.0125   -0.6126 C   0  0  0  0  0  0  0  0  0  0  0  0
   -3.0146    1.1315    0.1153 C   0  0  0  0  0  0  0  0  0  0  0  0
   -3.5134   -0.1396    0.4686 C   0  0  0  0  0  0  0  0  0  0  0  0
   -4.8101   -0.5457    0.1105 C   0  0  0  0  0  0  0  0  0  0  0  0
   -5.2110   -1.9216    0.5463 C   0  0  0  0  0  0  0  0  0  0  0  0
   -4.4273   -2.6636    1.1293 O   0  0  0  0  0  0  0  0  0  0  0  0
   -6.4792   -2.3456    0.2826 N   0  0  0  0  0  0  0  0  0  0  0  0
   -1.7216    1.5827    0.4434 C   0  0  0  0  0  0  0  0  0  0  0  0
   -1.3016    2.8605    0.0880 C   0  0  0  0  0  0  0  0  0  0  0  0
   -2.1833    3.6410   -0.6264 C   0  0  0  0  0  0  0  0  0  0  0  0
   -3.4224    3.2385   -0.9836 N   0  0  0  0  0  0  0  0  0  0  0  0
   -0.8968    0.7657    1.1899 O   0  0  0  0  0  0  0  0  0  0  0  0
    0.3315    0.4633    0.6460 C   0  0  0  0  0  0  0  0  0  0  0  0
    1.4281    0.5055    1.5050 C   0  0  0  0  0  0  0  0  0  0  0  0
    2.7063    0.1872    1.0336 C   0  0  0  0  0  0  0  0  0  0  0  0
    2.8975   -0.1886   -0.2991 C   0  0  0  0  0  0  0  0  0  0  0  0
    1.7732   -0.2577   -1.1452 C   0  0  0  0  0  0  0  0  0  0  0  0
    0.4956    0.0613   -0.6789 C   0  0  0  0  0  0  0  0  0  0  0  0
    1.9361   -0.7415   -2.8016 Cl  0  0  0  0  0  0  0  0  0  0  0  0
    4.1633   -0.5280   -0.8305 N   0  0  0  0  0  0  0  0  0  0  0  0
    5.3997   -0.3683   -0.2420 C   0  0  0  0  0  0  0  0  0  0  0  0
    5.6288    0.1796    0.8288 O   0  0  0  0  0  0  0  0  0  0  0  0
    6.3959   -0.9050   -1.0433 N   0  0  0  0  0  0  0  0  0  0  0  0
    7.7681   -0.8906   -0.6350 C   0  0  0  0  0  0  0  0  0  0  0  0
    8.7091    0.1511   -1.1733 C   0  0  0  0  0  0  0  0  0  0  0  0
    8.8538   -1.2796   -1.6010 C   0  0  0  0  0  0  0  0  0  0  0  0
   -8.7099    0.3669   -1.7707 H   0  0  0  0  0  0  0  0  0  0  0  0
   -7.3430    1.1074   -2.6115 H   0  0  0  0  0  0  0  0  0  0  0  0
   -7.9066    1.7479   -1.0152 H   0  0  0  0  0  0  0  0  0  0  0  0
   -5.7026    2.3165   -1.5273 H   0  0  0  0  0  0  0  0  0  0  0  0
   -2.8796   -0.8237    1.0333 H   0  0  0  0  0  0  0  0  0  0  0  0
   -6.7456   -3.2787    0.5630 H   0  0  0  0  0  0  0  0  0  0  0  0
   -7.1364   -1.7664   -0.2255 H   0  0  0  0  0  0  0  0  0  0  0  0
   -0.3244    3.2383    0.3636 H   0  0  0  0  0  0  0  0  0  0  0  0
   -1.9154    4.6465   -0.9393 H   0  0  0  0  0  0  0  0  0  0  0  0
    1.2949    0.7888    2.5465 H   0  0  0  0  0  0  0  0  0  0  0  0
    3.5323    0.2317    1.7380 H   0  0  0  0  0  0  0  0  0  0  0  0
   -0.3600   -0.0154   -1.3433 H   0  0  0  0  0  0  0  0  0  0  0  0
    4.1680   -0.7667   -1.8138 H   0  0  0  0  0  0  0  0  0  0  0  0
    6.1117   -1.6692   -1.6405 H   0  0  0  0  0  0  0  0  0  0  0  0
    7.9093   -1.1844    0.4043 H   0  0  0  0  0  0  0  0  0  0  0  0
    8.3259    0.8655   -1.8924 H   0  0  0  0  0  0  0  0  0  0  0  0
    9.4445    0.5609   -0.4908 H   0  0  0  0  0  0  0  0  0  0  0  0
    8.5842   -1.5274   -2.6204 H   0  0  0  0  0  0  0  0  0  0  0  0
    9.6967   -1.8409   -1.2145 H   0  0  0  0  0  0  0  0  0  0  0  0
  1  2  1  0
  2  3  1  0
  3  4  2  0
  4  5  1  0
  5  6  2  0
  6  7  1  0
  7  8  2  0
  8  9  1  0
  9 10  2  0
  9 11  1  0
  6 12  1  0
 12 13  2  0
 13 14  1  0
 14 15  2  0
 12 16  1  0
 16 17  1  0
 17 18  2  0
 18 19  1  0
 19 20  2  0
 20 21  1  0
 21 22  2  0
 21 23  1  0
 20 24  1  0
 24 25  1  0
 25 26  2  0
 25 27  1  0
 27 28  1  0
 28 29  1  0
 29 30  1  0
  8  3  1  0
 15  5  1  0
 22 17  1  0
 30 28  1  0
  1 31  1  0
  1 32  1  0
  1 33  1  0
  4 34  1  0
  7 35  1  0
 11 36  1  0
 11 37  1  0
 13 38  1  0
 14 39  1  0
 18 40  1  0
 19 41  1  0
 22 42  1  0
 24 43  1  0
 27 44  1  0
 28 45  1  0
 29 46  1  0
 29 47  1  0
 30 48  1  0
 30 49  1  0
M  END
>  <energy_abs>  (1) 
-6.0991332585875355

>  <SMILES>  (1) 
COc1cc2c(cc1C(=O)N)c(ccn2)Oc3ccc(c(c3)Cl)NC(=O)NC4CC4

>  <cluster_no>  (1) 
45

>  <fda_drugs_id>  (1) 
3WZD_LEV

>  <initial_conformation_id>  (1) 
17

>  <minimize_method>  (1) 
MMFF

$$$$
