
     RDKit          3D

 51 54  0  0  0  0  0  0  0  0999 V2000
    4.1291    2.3628   -0.8540 C   0  0  0  0  0  0  0  0  0  0  0  0
    3.5038    1.2112   -0.3559 C   0  0  0  0  0  0  0  0  0  0  0  0
    2.9954    0.2386   -1.2216 C   0  0  0  0  0  0  0  0  0  0  0  0
    3.1248    0.4691   -2.6026 C   0  0  0  0  0  0  0  0  0  0  0  0
    3.7419    1.6083   -3.1141 C   0  0  0  0  0  0  0  0  0  0  0  0
    4.2464    2.5549   -2.2304 C   0  0  0  0  0  0  0  0  0  0  0  0
    5.1654    4.2673   -2.9617 I   0  0  0  0  0  0  0  0  0  0  0  0
    2.6309   -0.4308   -3.4668 F   0  0  0  0  0  0  0  0  0  0  0  0
    2.3632   -0.9386   -0.7825 N   0  0  0  0  0  0  0  0  0  0  0  0
    2.4019   -1.6804    0.4190 C   0  0  0  0  0  0  0  0  0  0  0  0
    1.2767   -2.4547    0.7925 C   0  0  0  0  0  0  0  0  0  0  0  0
    1.2412   -3.1814    1.9950 C   0  0  0  0  0  0  0  0  0  0  0  0
    2.3250   -3.1286    2.8652 C   0  0  0  0  0  0  0  0  0  0  0  0
    3.4305   -2.3600    2.5238 C   0  0  0  0  0  0  0  0  0  0  0  0
    3.4738   -1.6495    1.3230 C   0  0  0  0  0  0  0  0  0  0  0  0
    4.5937   -0.9695    1.0373 F   0  0  0  0  0  0  0  0  0  0  0  0
    4.4738   -2.3157    3.3641 F   0  0  0  0  0  0  0  0  0  0  0  0
    0.1046   -2.5149   -0.1123 C   0  0  0  0  0  0  0  0  0  0  0  0
    0.2823   -2.7666   -1.3003 O   0  0  0  0  0  0  0  0  0  0  0  0
   -1.1260   -2.2417    0.4384 N   0  0  0  0  0  0  0  0  0  0  0  0
   -2.3467   -1.9441   -0.3085 C   0  0  0  0  0  0  0  0  0  0  0  0
   -2.5563   -0.7291    0.6328 C   0  0  0  0  0  0  0  0  0  0  0  0
   -1.4612   -1.3521    1.5453 C   0  0  0  0  0  0  0  0  0  0  0  0
   -2.2826    0.6659    0.0027 C   0  0  2  0  0  0  0  0  0  0  0  0
   -0.8725    0.8472   -0.5774 C   0  0  0  0  0  0  0  0  0  0  0  0
   -0.6997    2.2458   -1.1690 C   0  0  0  0  0  0  0  0  0  0  0  0
   -1.0906    3.3155   -0.1554 C   0  0  0  0  0  0  0  0  0  0  0  0
   -2.4775    3.0480    0.4264 C   0  0  0  0  0  0  0  0  0  0  0  0
   -2.5653    1.7091    1.0252 N   0  0  0  0  0  0  0  0  0  0  0  0
   -3.8756   -0.6797    1.2596 O   0  0  0  0  0  0  0  0  0  0  0  0
    4.5155    3.0970   -0.1513 H   0  0  0  0  0  0  0  0  0  0  0  0
    3.4097    1.0999    0.7209 H   0  0  0  0  0  0  0  0  0  0  0  0
    3.8147    1.7281   -4.1913 H   0  0  0  0  0  0  0  0  0  0  0  0
    1.8655   -1.4312   -1.5355 H   0  0  0  0  0  0  0  0  0  0  0  0
    0.3764   -3.7914    2.2461 H   0  0  0  0  0  0  0  0  0  0  0  0
    2.3199   -3.6814    3.8008 H   0  0  0  0  0  0  0  0  0  0  0  0
   -2.1948   -1.7135   -1.3665 H   0  0  0  0  0  0  0  0  0  0  0  0
   -3.0897   -2.7424   -0.2133 H   0  0  0  0  0  0  0  0  0  0  0  0
   -1.8377   -1.9026    2.4134 H   0  0  0  0  0  0  0  0  0  0  0  0
   -0.6627   -0.6802    1.8671 H   0  0  0  0  0  0  0  0  0  0  0  0
   -3.0108    0.7921   -0.8115 H   0  0  0  0  0  0  0  0  0  0  0  0
   -0.1103    0.6996    0.1962 H   0  0  0  0  0  0  0  0  0  0  0  0
   -0.6778    0.1088   -1.3622 H   0  0  0  0  0  0  0  0  0  0  0  0
    0.3372    2.3933   -1.4892 H   0  0  0  0  0  0  0  0  0  0  0  0
   -1.3282    2.3431   -2.0631 H   0  0  0  0  0  0  0  0  0  0  0  0
   -1.0719    4.3015   -0.6329 H   0  0  0  0  0  0  0  0  0  0  0  0
   -0.3498    3.3376    0.6537 H   0  0  0  0  0  0  0  0  0  0  0  0
   -3.2470    3.1620   -0.3465 H   0  0  0  0  0  0  0  0  0  0  0  0
   -2.6976    3.7918    1.2009 H   0  0  0  0  0  0  0  0  0  0  0  0
   -1.8561    1.6527    1.7592 H   0  0  0  0  0  0  0  0  0  0  0  0
   -3.9350    0.2481    1.5738 H   0  0  0  0  0  0  0  0  0  0  0  0
  1  2  2  0
  2  3  1  0
  3  4  2  0
  4  5  1  0
  5  6  2  0
  6  7  1  0
  4  8  1  0
  3  9  1  0
  9 10  1  0
 10 11  1  0
 11 12  2  0
 12 13  1  0
 13 14  2  0
 14 15  1  0
 15 16  1  0
 14 17  1  0
 11 18  1  0
 18 19  2  0
 18 20  1  0
 20 21  1  0
 21 22  1  0
 22 23  1  0
 22 24  1  0
 24 25  1  0
 25 26  1  0
 26 27  1  0
 27 28  1  0
 28 29  1  0
 22 30  1  0
  6  1  1  0
 15 10  2  0
 23 20  1  0
 29 24  1  0
  1 31  1  0
  2 32  1  0
  5 33  1  0
  9 34  1  0
 12 35  1  0
 13 36  1  0
 21 37  1  0
 21 38  1  0
 23 39  1  0
 23 40  1  0
 24 41  1  6
 25 42  1  0
 25 43  1  0
 26 44  1  0
 26 45  1  0
 27 46  1  0
 27 47  1  0
 28 48  1  0
 28 49  1  0
 29 50  1  0
 30 51  1  0
M  END
>  <energy_abs>  (1) 
112.15841767726722

>  <SMILES>  (1) 
c1cc(c(cc1I)F)Nc2c(ccc(c2F)F)C(=O)N3CC(C3)([C@@H]4CCCCN4)O

>  <cluster_no>  (1) 
105

>  <fda_drugs_id>  (1) 
4AN2_EUI

>  <initial_conformation_id>  (1) 
125

>  <minimize_method>  (1) 
MMFF

$$$$
