
     RDKit          3D

 59 62  0  0  0  0  0  0  0  0999 V2000
   -5.1288   -0.2975    3.6775 C   0  0  0  0  0  0  0  0  0  0  0  0
   -4.3477    0.7369    4.3664 N   0  0  0  0  0  0  0  0  0  0  0  0
   -5.1879    1.3854    5.3768 C   0  0  0  0  0  0  0  0  0  0  0  0
   -3.1499    0.1612    4.9963 C   0  0  0  0  0  0  0  0  0  0  0  0
   -1.9971   -0.0831    4.0611 C   0  0  0  0  0  0  0  0  0  0  0  0
   -1.8719    0.3817    2.8066 C   0  0  0  0  0  0  0  0  0  0  0  0
   -0.6650    0.0646    1.9940 C   0  0  0  0  0  0  0  0  0  0  0  0
    0.2387   -0.6318    2.4396 O   0  0  0  0  0  0  0  0  0  0  0  0
   -0.7177    0.6523    0.7505 N   0  0  0  0  0  0  0  0  0  0  0  0
    0.2333    0.5697   -0.2913 C   0  0  0  0  0  0  0  0  0  0  0  0
    1.3725   -0.2310   -0.2355 C   0  0  0  0  0  0  0  0  0  0  0  0
    2.3009   -0.2607   -1.3073 C   0  0  0  0  0  0  0  0  0  0  0  0
    2.0519    0.5111   -2.4490 C   0  0  0  0  0  0  0  0  0  0  0  0
    0.9057    1.2952   -2.4997 C   0  0  0  0  0  0  0  0  0  0  0  0
   -0.0041    1.3411   -1.4406 C   0  0  0  0  0  0  0  0  0  0  0  0
   -1.1564    2.0887   -1.4151 O   0  0  0  0  0  0  0  0  0  0  0  0
   -1.4414    2.9662   -2.5126 C   0  0  1  0  0  0  0  0  0  0  0  0
   -2.1609    2.2242   -3.6181 C   0  0  0  0  0  0  0  0  0  0  0  0
   -3.5727    2.1361   -3.0765 C   0  0  0  0  0  0  0  0  0  0  0  0
   -3.7968    3.3266   -2.3111 O   0  0  0  0  0  0  0  0  0  0  0  0
   -2.5218    3.9467   -2.0630 C   0  0  0  0  0  0  0  0  0  0  0  0
    2.8698    0.5265   -3.5033 N   0  0  0  0  0  0  0  0  0  0  0  0
    3.9593   -0.2449   -3.4292 C   0  0  0  0  0  0  0  0  0  0  0  0
    4.3070   -1.0205   -2.4000 N   0  0  0  0  0  0  0  0  0  0  0  0
    3.4859   -1.0261   -1.3347 C   0  0  0  0  0  0  0  0  0  0  0  0
    3.8118   -1.8291   -0.2087 N   0  0  0  0  0  0  0  0  0  0  0  0
    4.7967   -2.8332   -0.0848 C   0  0  0  0  0  0  0  0  0  0  0  0
    5.2631   -3.1669    1.1993 C   0  0  0  0  0  0  0  0  0  0  0  0
    6.1966   -4.1900    1.3854 C   0  0  0  0  0  0  0  0  0  0  0  0
    6.6554   -4.9073    0.2881 C   0  0  0  0  0  0  0  0  0  0  0  0
    6.1815   -4.6197   -0.9876 C   0  0  0  0  0  0  0  0  0  0  0  0
    5.2476   -3.5965   -1.1708 C   0  0  0  0  0  0  0  0  0  0  0  0
    6.7260   -5.5251   -2.3485 Cl  0  0  0  0  0  0  0  0  0  0  0  0
    7.5498   -5.8869    0.4861 F   0  0  0  0  0  0  0  0  0  0  0  0
   -5.9944    0.1510    3.1768 H   0  0  0  0  0  0  0  0  0  0  0  0
   -4.5414   -0.7896    2.8955 H   0  0  0  0  0  0  0  0  0  0  0  0
   -5.4935   -1.0684    4.3665 H   0  0  0  0  0  0  0  0  0  0  0  0
   -4.6454    2.2060    5.8596 H   0  0  0  0  0  0  0  0  0  0  0  0
   -6.0748    1.8311    4.9124 H   0  0  0  0  0  0  0  0  0  0  0  0
   -5.5184    0.6851    6.1526 H   0  0  0  0  0  0  0  0  0  0  0  0
   -2.7665    0.8468    5.7639 H   0  0  0  0  0  0  0  0  0  0  0  0
   -3.3975   -0.7736    5.5161 H   0  0  0  0  0  0  0  0  0  0  0  0
   -1.1926   -0.6853    4.4816 H   0  0  0  0  0  0  0  0  0  0  0  0
   -2.6443    1.0000    2.3655 H   0  0  0  0  0  0  0  0  0  0  0  0
   -1.5078    1.2521    0.5324 H   0  0  0  0  0  0  0  0  0  0  0  0
    1.5514   -0.8612    0.6291 H   0  0  0  0  0  0  0  0  0  0  0  0
    0.7472    1.8674   -3.4082 H   0  0  0  0  0  0  0  0  0  0  0  0
   -0.5465    3.5148   -2.8230 H   0  0  0  0  0  0  0  0  0  0  0  0
   -2.1548    2.8289   -4.5325 H   0  0  0  0  0  0  0  0  0  0  0  0
   -1.7589    1.2342   -3.8478 H   0  0  0  0  0  0  0  0  0  0  0  0
   -3.6904    1.2778   -2.4061 H   0  0  0  0  0  0  0  0  0  0  0  0
   -4.3217    2.0624   -3.8699 H   0  0  0  0  0  0  0  0  0  0  0  0
   -2.4562    4.2029   -1.0015 H   0  0  0  0  0  0  0  0  0  0  0  0
   -2.4914    4.8652   -2.6586 H   0  0  0  0  0  0  0  0  0  0  0  0
    4.6246   -0.2400   -4.2859 H   0  0  0  0  0  0  0  0  0  0  0  0
    3.7248   -1.2750    0.6382 H   0  0  0  0  0  0  0  0  0  0  0  0
    4.9024   -2.6273    2.0726 H   0  0  0  0  0  0  0  0  0  0  0  0
    6.5612   -4.4345    2.3781 H   0  0  0  0  0  0  0  0  0  0  0  0
    4.8669   -3.4064   -2.1700 H   0  0  0  0  0  0  0  0  0  0  0  0
  1  2  1  0
  2  3  1  0
  2  4  1  0
  4  5  1  0
  5  6  2  0
  6  7  1  0
  7  8  2  0
  7  9  1  0
  9 10  1  0
 10 11  2  0
 11 12  1  0
 12 13  2  0
 13 14  1  0
 14 15  2  0
 15 16  1  0
 16 17  1  0
 17 18  1  0
 18 19  1  0
 19 20  1  0
 20 21  1  0
 13 22  1  0
 22 23  2  0
 23 24  1  0
 24 25  2  0
 25 26  1  0
 26 27  1  0
 27 28  2  0
 28 29  1  0
 29 30  2  0
 30 31  1  0
 31 32  2  0
 31 33  1  0
 30 34  1  0
 15 10  1  0
 25 12  1  0
 21 17  1  0
 32 27  1  0
  1 35  1  0
  1 36  1  0
  1 37  1  0
  3 38  1  0
  3 39  1  0
  3 40  1  0
  4 41  1  0
  4 42  1  0
  5 43  1  0
  6 44  1  0
  9 45  1  0
 11 46  1  0
 14 47  1  0
 17 48  1  6
 18 49  1  0
 18 50  1  0
 19 51  1  0
 19 52  1  0
 21 53  1  0
 21 54  1  0
 23 55  1  0
 26 56  1  0
 28 57  1  0
 29 58  1  0
 32 59  1  0
M  END
>  <energy_abs>  (1) 
5.206903795703794

>  <SMILES>  (1) 
CN(C)C/C=C/C(=O)Nc1cc2c(cc1O[C@H]3CCOC3)ncnc2Nc4ccc(c(c4)Cl)F

>  <cluster_no>  (1) 
38

>  <fda_drugs_id>  (1) 
4G5J_0WM

>  <initial_conformation_id>  (1) 
256

>  <minimize_method>  (1) 
MMFF

$$$$
