
     RDKit          3D

 52 54  0  0  0  0  0  0  0  0999 V2000
   -1.6718    1.8764   -2.3682 C   0  0  0  0  0  0  0  0  0  0  0  0
   -0.7596    0.9461   -1.6494 C   0  0  0  0  0  0  0  0  0  0  0  0
   -1.0652    0.1490   -0.5546 C   0  0  0  0  0  0  0  0  0  0  0  0
    0.3268   -0.7528   -0.1081 S   0  0  0  0  0  0  0  0  0  0  0  0
    1.2049   -0.0329   -1.3708 C   0  0  0  0  0  0  0  0  0  0  0  0
    0.5474    0.8338   -2.1037 N   0  0  0  0  0  0  0  0  0  0  0  0
    2.5199   -0.3130   -1.6359 N   0  0  0  0  0  0  0  0  0  0  0  0
    3.3359   -1.1935   -0.9819 C   0  0  0  0  0  0  0  0  0  0  0  0
    3.0191   -1.8910   -0.0201 O   0  0  0  0  0  0  0  0  0  0  0  0
    4.6271   -1.2523   -1.4729 N   0  0  0  0  0  0  0  0  0  0  0  0
    5.1741   -0.5429   -2.6219 C   0  0  0  0  0  0  0  0  0  0  0  0
    6.6345   -0.9617   -2.6870 C   0  0  0  0  0  0  0  0  0  0  0  0
    6.6119   -2.3674   -2.0988 C   0  0  0  0  0  0  0  0  0  0  0  0
    5.5877   -2.2453   -0.9681 C   0  0  1  0  0  0  0  0  0  0  0  0
    6.2475   -1.8243    0.3665 C   0  0  0  0  0  0  0  0  0  0  0  0
    7.4405   -1.9700    0.6196 O   0  0  0  0  0  0  0  0  0  0  0  0
    5.3958   -1.3859    1.3404 N   0  0  0  0  0  0  0  0  0  0  0  0
   -2.3079    0.0147    0.2053 C   0  0  0  0  0  0  0  0  0  0  0  0
   -2.9209   -1.2248    0.3699 C   0  0  0  0  0  0  0  0  0  0  0  0
   -4.1004   -1.2790    1.0851 C   0  0  0  0  0  0  0  0  0  0  0  0
   -4.6977   -0.1976    1.6311 N   0  0  0  0  0  0  0  0  0  0  0  0
   -4.1130    1.0147    1.4732 C   0  0  0  0  0  0  0  0  0  0  0  0
   -2.9124    1.1437    0.7704 C   0  0  0  0  0  0  0  0  0  0  0  0
   -4.8069    2.2212    2.1114 C   0  0  0  0  0  0  0  0  0  0  0  0
   -6.0899    1.7997    2.8646 C   0  0  0  0  0  0  0  0  0  0  0  0
   -3.8651    2.8883    3.1334 C   0  0  0  0  0  0  0  0  0  0  0  0
   -5.2046    3.2316    1.0296 C   0  0  0  0  0  0  0  0  0  0  0  0
   -4.1292    3.7265    0.3701 F   0  0  0  0  0  0  0  0  0  0  0  0
   -5.8452    4.2979    1.5699 F   0  0  0  0  0  0  0  0  0  0  0  0
   -6.0333    2.6998    0.1036 F   0  0  0  0  0  0  0  0  0  0  0  0
   -1.8004    2.8004   -1.7963 H   0  0  0  0  0  0  0  0  0  0  0  0
   -2.6541    1.4198   -2.5244 H   0  0  0  0  0  0  0  0  0  0  0  0
   -1.2645    2.1379   -3.3501 H   0  0  0  0  0  0  0  0  0  0  0  0
    2.8737    0.2101   -2.4172 H   0  0  0  0  0  0  0  0  0  0  0  0
    5.0545    0.5376   -2.5002 H   0  0  0  0  0  0  0  0  0  0  0  0
    4.6274   -0.8678   -3.5140 H   0  0  0  0  0  0  0  0  0  0  0  0
    7.0350   -0.9304   -3.7040 H   0  0  0  0  0  0  0  0  0  0  0  0
    7.2449   -0.3027   -2.0581 H   0  0  0  0  0  0  0  0  0  0  0  0
    7.6031   -2.7017   -1.7807 H   0  0  0  0  0  0  0  0  0  0  0  0
    6.2445   -3.0710   -2.8565 H   0  0  0  0  0  0  0  0  0  0  0  0
    5.0835   -3.2030   -0.7928 H   0  0  0  0  0  0  0  0  0  0  0  0
    4.3980   -1.5741    1.2485 H   0  0  0  0  0  0  0  0  0  0  0  0
    5.7722   -1.2641    2.2698 H   0  0  0  0  0  0  0  0  0  0  0  0
   -2.4998   -2.1318   -0.0507 H   0  0  0  0  0  0  0  0  0  0  0  0
   -4.6171   -2.2218    1.2424 H   0  0  0  0  0  0  0  0  0  0  0  0
   -2.4339    2.1134    0.6634 H   0  0  0  0  0  0  0  0  0  0  0  0
   -6.8183    1.3332    2.1908 H   0  0  0  0  0  0  0  0  0  0  0  0
   -5.8691    1.0833    3.6648 H   0  0  0  0  0  0  0  0  0  0  0  0
   -6.5803    2.6637    3.3280 H   0  0  0  0  0  0  0  0  0  0  0  0
   -2.9621    3.2907    2.6610 H   0  0  0  0  0  0  0  0  0  0  0  0
   -3.5433    2.1734    3.8999 H   0  0  0  0  0  0  0  0  0  0  0  0
   -4.3612    3.7222    3.6432 H   0  0  0  0  0  0  0  0  0  0  0  0
  1  2  1  0
  2  3  2  0
  3  4  1  0
  4  5  1  0
  5  6  2  0
  5  7  1  0
  7  8  1  0
  8  9  2  0
  8 10  1  0
 10 11  1  0
 11 12  1  0
 12 13  1  0
 13 14  1  0
 14 15  1  0
 15 16  2  0
 15 17  1  0
  3 18  1  0
 18 19  2  0
 19 20  1  0
 20 21  2  0
 21 22  1  0
 22 23  2  0
 22 24  1  0
 24 25  1  0
 24 26  1  0
 24 27  1  0
 27 28  1  0
 27 29  1  0
 27 30  1  0
  6  2  1  0
 14 10  1  0
 23 18  1  0
  1 31  1  0
  1 32  1  0
  1 33  1  0
  7 34  1  0
 11 35  1  0
 11 36  1  0
 12 37  1  0
 12 38  1  0
 13 39  1  0
 13 40  1  0
 14 41  1  1
 17 42  1  0
 17 43  1  0
 19 44  1  0
 20 45  1  0
 23 46  1  0
 25 47  1  0
 25 48  1  0
 25 49  1  0
 26 50  1  0
 26 51  1  0
 26 52  1  0
M  END
>  <energy_abs>  (1) 
-43.67594028310734

>  <SMILES>  (1) 
Cc1c(sc(n1)NC(=O)N2CCC[C@H]2C(=O)N)c3ccnc(c3)C(C)(C)C(F)(F)F

>  <cluster_no>  (1) 
76

>  <fda_drugs_id>  (1) 
4JPS_1LT

>  <initial_conformation_id>  (1) 
230

>  <minimize_method>  (1) 
MMFF

$$$$
