
     RDKit          3D

 74 77  0  0  0  0  0  0  0  0999 V2000
   -1.2599    0.3306    2.8032 C   0  0  0  0  0  0  0  0  0  0  0  0
   -1.7593    0.1586    1.3926 C   0  0  0  0  0  0  0  0  0  0  0  0
   -0.8259   -0.2192    0.4030 C   0  0  0  0  0  0  0  0  0  0  0  0
   -1.1932   -0.4217   -0.9294 C   0  0  0  0  0  0  0  0  0  0  0  0
   -2.5362   -0.1970   -1.2675 C   0  0  0  0  0  0  0  0  0  0  0  0
   -3.4837    0.1538   -0.3005 C   0  0  0  0  0  0  0  0  0  0  0  0
   -3.1132    0.3466    1.0420 C   0  0  0  0  0  0  0  0  0  0  0  0
   -4.1725    0.7296    2.0681 C   0  0  0  0  0  0  0  0  0  0  0  0
   -4.8409    2.0759    1.7419 C   0  0  0  0  0  0  0  0  0  0  0  0
   -5.9174    2.4062    2.7745 C   0  0  0  0  0  0  0  0  0  0  0  0
   -6.9197    1.3439    2.8764 N   0  0  0  0  0  0  0  0  0  0  0  0
   -6.3040    0.0671    3.2431 C   0  0  0  0  0  0  0  0  0  0  0  0
   -5.2405   -0.3644    2.2344 C   0  0  0  0  0  0  0  0  0  0  0  0
   -2.9112   -0.4198   -2.5728 O   0  0  0  0  0  0  0  0  0  0  0  0
   -3.4710    0.7421   -3.2077 C   0  0  0  0  0  0  0  0  0  0  0  0
   -4.8584    0.3748   -3.7235 C   0  0  0  0  0  0  0  0  0  0  0  0
   -2.5520    1.1245   -4.3630 C   0  0  0  0  0  0  0  0  0  0  0  0
   -0.2948   -0.7799   -1.9446 N   0  0  0  0  0  0  0  0  0  0  0  0
    1.0766   -0.9799   -1.9956 C   0  0  0  0  0  0  0  0  0  0  0  0
    1.5373   -1.5273   -3.1304 N   0  0  0  0  0  0  0  0  0  0  0  0
    2.8664   -1.7378   -3.2123 C   0  0  0  0  0  0  0  0  0  0  0  0
    3.7532   -1.4130   -2.2143 C   0  0  0  0  0  0  0  0  0  0  0  0
    3.2055   -0.8357   -1.0769 C   0  0  0  0  0  0  0  0  0  0  0  0
    1.8768   -0.6204   -0.9805 N   0  0  0  0  0  0  0  0  0  0  0  0
    4.0690   -0.4497   -0.0133 N   0  0  0  0  0  0  0  0  0  0  0  0
    3.7714    0.2910    1.1550 C   0  0  0  0  0  0  0  0  0  0  0  0
    2.7770    1.2842    1.1425 C   0  0  0  0  0  0  0  0  0  0  0  0
    2.4951    2.0660    2.2684 C   0  0  0  0  0  0  0  0  0  0  0  0
    3.2202    1.8906    3.4398 C   0  0  0  0  0  0  0  0  0  0  0  0
    4.2424    0.9484    3.4763 C   0  0  0  0  0  0  0  0  0  0  0  0
    4.5315    0.1767    2.3363 C   0  0  0  0  0  0  0  0  0  0  0  0
    5.8833   -0.9785    2.4796 S   0  0  0  0  0  6  0  0  0  0  0  0
    5.8008   -1.8979    1.3558 O   0  0  0  0  0  0  0  0  0  0  0  0
    5.8522   -1.4892    3.8377 O   0  0  0  0  0  0  0  0  0  0  0  0
    7.3585    0.0325    2.2870 C   0  0  0  0  0  0  0  0  0  0  0  0
    7.4021    0.7349    0.9344 C   0  0  0  0  0  0  0  0  0  0  0  0
    8.6045   -0.8293    2.4779 C   0  0  0  0  0  0  0  0  0  0  0  0
    5.4341   -1.7164   -2.4105 Cl  0  0  0  0  0  0  0  0  0  0  0  0
   -0.1864    0.1270    2.8822 H   0  0  0  0  0  0  0  0  0  0  0  0
   -1.7709   -0.3673    3.4747 H   0  0  0  0  0  0  0  0  0  0  0  0
   -1.4224    1.3596    3.1406 H   0  0  0  0  0  0  0  0  0  0  0  0
    0.2063   -0.3796    0.7044 H   0  0  0  0  0  0  0  0  0  0  0  0
   -4.5227    0.2608   -0.5991 H   0  0  0  0  0  0  0  0  0  0  0  0
   -3.6987    0.8524    3.0487 H   0  0  0  0  0  0  0  0  0  0  0  0
   -5.2974    2.0571    0.7433 H   0  0  0  0  0  0  0  0  0  0  0  0
   -4.0894    2.8757    1.7269 H   0  0  0  0  0  0  0  0  0  0  0  0
   -6.4188    3.3380    2.4913 H   0  0  0  0  0  0  0  0  0  0  0  0
   -5.4627    2.5834    3.7566 H   0  0  0  0  0  0  0  0  0  0  0  0
   -7.3890    1.2412    1.9761 H   0  0  0  0  0  0  0  0  0  0  0  0
   -5.8693    0.1398    4.2473 H   0  0  0  0  0  0  0  0  0  0  0  0
   -7.0858   -0.6987    3.2974 H   0  0  0  0  0  0  0  0  0  0  0  0
   -4.7727   -1.2977    2.5715 H   0  0  0  0  0  0  0  0  0  0  0  0
   -5.7275   -0.5855    1.2763 H   0  0  0  0  0  0  0  0  0  0  0  0
   -3.5527    1.6011   -2.5281 H   0  0  0  0  0  0  0  0  0  0  0  0
   -4.8112   -0.4801   -4.4075 H   0  0  0  0  0  0  0  0  0  0  0  0
   -5.5109    0.0774   -2.8957 H   0  0  0  0  0  0  0  0  0  0  0  0
   -5.3228    1.2168   -4.2459 H   0  0  0  0  0  0  0  0  0  0  0  0
   -2.9444    1.9835   -4.9156 H   0  0  0  0  0  0  0  0  0  0  0  0
   -1.5539    1.3787   -3.9896 H   0  0  0  0  0  0  0  0  0  0  0  0
   -2.4242    0.2872   -5.0583 H   0  0  0  0  0  0  0  0  0  0  0  0
   -0.7385   -1.0809   -2.8035 H   0  0  0  0  0  0  0  0  0  0  0  0
    3.2013   -2.1909   -4.1405 H   0  0  0  0  0  0  0  0  0  0  0  0
    4.7031   -1.2384    0.1739 H   0  0  0  0  0  0  0  0  0  0  0  0
    2.1978    1.4724    0.2408 H   0  0  0  0  0  0  0  0  0  0  0  0
    1.7027    2.8091    2.2200 H   0  0  0  0  0  0  0  0  0  0  0  0
    2.9931    2.4890    4.3184 H   0  0  0  0  0  0  0  0  0  0  0  0
    4.8085    0.8165    4.3967 H   0  0  0  0  0  0  0  0  0  0  0  0
    7.3262    0.7810    3.0870 H   0  0  0  0  0  0  0  0  0  0  0  0
    6.5635    1.4268    0.8159 H   0  0  0  0  0  0  0  0  0  0  0  0
    8.3226    1.3195    0.8319 H   0  0  0  0  0  0  0  0  0  0  0  0
    7.3633    0.0184    0.1072 H   0  0  0  0  0  0  0  0  0  0  0  0
    8.6005   -1.3136    3.4600 H   0  0  0  0  0  0  0  0  0  0  0  0
    8.6629   -1.6182    1.7204 H   0  0  0  0  0  0  0  0  0  0  0  0
    9.5134   -0.2224    2.4090 H   0  0  0  0  0  0  0  0  0  0  0  0
  1  2  1  0
  2  3  2  0
  3  4  1  0
  4  5  2  0
  5  6  1  0
  6  7  2  0
  7  8  1  0
  8  9  1  0
  9 10  1  0
 10 11  1  0
 11 12  1  0
 12 13  1  0
  5 14  1  0
 14 15  1  0
 15 16  1  0
 15 17  1  0
  4 18  1  0
 18 19  1  0
 19 20  2  0
 20 21  1  0
 21 22  2  0
 22 23  1  0
 23 24  2  0
 23 25  1  0
 25 26  1  0
 26 27  2  0
 27 28  1  0
 28 29  2  0
 29 30  1  0
 30 31  2  0
 31 32  1  0
 32 33  2  0
 32 34  2  0
 32 35  1  0
 35 36  1  0
 35 37  1  0
 22 38  1  0
  7  2  1  0
 13  8  1  0
 24 19  1  0
 31 26  1  0
  1 39  1  0
  1 40  1  0
  1 41  1  0
  3 42  1  0
  6 43  1  0
  8 44  1  0
  9 45  1  0
  9 46  1  0
 10 47  1  0
 10 48  1  0
 11 49  1  0
 12 50  1  0
 12 51  1  0
 13 52  1  0
 13 53  1  0
 15 54  1  0
 16 55  1  0
 16 56  1  0
 16 57  1  0
 17 58  1  0
 17 59  1  0
 17 60  1  0
 18 61  1  0
 21 62  1  0
 25 63  1  0
 27 64  1  0
 28 65  1  0
 29 66  1  0
 30 67  1  0
 35 68  1  0
 36 69  1  0
 36 70  1  0
 36 71  1  0
 37 72  1  0
 37 73  1  0
 37 74  1  0
M  END
>  <energy_abs>  (1) 
25.309092930513973

>  <SMILES>  (1) 
Cc1cc(c(cc1C2CCNCC2)OC(C)C)Nc3ncc(c(n3)Nc4ccccc4S(=O)(=O)C(C)C)Cl

>  <cluster_no>  (1) 
239

>  <fda_drugs_id>  (1) 
4MKC_4MK

>  <initial_conformation_id>  (1) 
50

>  <minimize_method>  (1) 
MMFF

$$$$
