
     RDKit          3D

 65 68  0  0  0  0  0  0  0  0999 V2000
   -8.8307    0.6435   -1.0970 C   0  0  0  0  0  0  0  0  0  0  0  0
   -7.3764    0.5364   -1.0225 N   0  0  0  0  0  0  0  0  0  0  0  0
   -6.7811    0.5352   -2.3722 C   0  0  0  0  0  0  0  0  0  0  0  0
   -5.2445    0.3532   -2.3384 C   0  0  0  0  0  0  0  0  0  0  0  0
   -4.8354   -0.8795   -1.6292 N   0  0  0  0  0  0  0  0  0  0  0  0
   -5.4419   -0.8694   -0.2785 C   0  0  0  0  0  0  0  0  0  0  0  0
   -6.9769   -0.6962   -0.3187 C   0  0  0  0  0  0  0  0  0  0  0  0
   -3.3698   -0.9914   -1.5181 C   0  0  0  0  0  0  0  0  0  0  0  0
   -2.6962   -1.2677   -2.8691 C   0  0  0  0  0  0  0  0  0  0  0  0
   -1.2093   -1.5797   -2.7031 C   0  0  0  0  0  0  0  0  0  0  0  0
   -0.5622   -0.4415   -2.1383 O   0  0  0  0  0  0  0  0  0  0  0  0
    0.7740   -0.5367   -1.8438 C   0  0  0  0  0  0  0  0  0  0  0  0
    1.5767   -1.6394   -2.1497 C   0  0  0  0  0  0  0  0  0  0  0  0
    2.9258   -1.6781   -1.8281 C   0  0  0  0  0  0  0  0  0  0  0  0
    3.5146   -0.5722   -1.1800 C   0  0  0  0  0  0  0  0  0  0  0  0
    2.7007    0.5460   -0.8727 C   0  0  0  0  0  0  0  0  0  0  0  0
    1.3416    0.5693   -1.1948 C   0  0  0  0  0  0  0  0  0  0  0  0
    0.4949    1.6134   -0.9240 O   0  0  0  0  0  0  0  0  0  0  0  0
    1.0061    2.7123   -0.1826 C   0  0  0  0  0  0  0  0  0  0  0  0
    4.9029   -0.6546   -0.8719 C   0  0  0  0  0  0  0  0  0  0  0  0
    5.6175   -1.8111   -1.2140 C   0  0  0  0  0  0  0  0  0  0  0  0
    4.9341   -2.8305   -1.8472 C   0  0  0  0  0  0  0  0  0  0  0  0
    3.6186   -2.7809   -2.1528 N   0  0  0  0  0  0  0  0  0  0  0  0
    7.0096   -1.9723   -0.9334 C   0  0  0  0  0  0  0  0  0  0  0  0
    8.1358   -2.1460   -0.7122 N   0  0  0  0  0  0  0  0  0  0  0  0
    5.5756    0.4175   -0.2183 N   0  0  0  0  0  0  0  0  0  0  0  0
    5.5190    0.6895    1.1809 C   0  0  0  0  0  0  0  0  0  0  0  0
    5.3099   -0.3373    2.1182 C   0  0  0  0  0  0  0  0  0  0  0  0
    5.3167   -0.0749    3.4953 C   0  0  0  0  0  0  0  0  0  0  0  0
    5.5540    1.2371    3.9354 C   0  0  0  0  0  0  0  0  0  0  0  0
    5.7885    2.2658    3.0237 C   0  0  0  0  0  0  0  0  0  0  0  0
    5.7794    1.9883    1.6591 C   0  0  0  0  0  0  0  0  0  0  0  0
    6.0475    3.2915    0.5529 Cl  0  0  0  0  0  0  0  0  0  0  0  0
    5.5696    1.6343    5.6188 Cl  0  0  0  0  0  0  0  0  0  0  0  0
    5.1049   -1.0191    4.4659 O   0  0  0  0  0  0  0  0  0  0  0  0
    4.9242   -2.3681    4.0564 C   0  0  0  0  0  0  0  0  0  0  0  0
   -9.2662    0.6732   -0.0920 H   0  0  0  0  0  0  0  0  0  0  0  0
   -9.1204    1.5765   -1.5931 H   0  0  0  0  0  0  0  0  0  0  0  0
   -9.2833   -0.1922   -1.6427 H   0  0  0  0  0  0  0  0  0  0  0  0
   -7.2203   -0.2623   -2.9872 H   0  0  0  0  0  0  0  0  0  0  0  0
   -7.0018    1.4881   -2.8684 H   0  0  0  0  0  0  0  0  0  0  0  0
   -4.8989    0.3203   -3.3773 H   0  0  0  0  0  0  0  0  0  0  0  0
   -4.7905    1.2359   -1.8682 H   0  0  0  0  0  0  0  0  0  0  0  0
   -5.2227   -1.8188    0.2253 H   0  0  0  0  0  0  0  0  0  0  0  0
   -5.0068   -0.0665    0.3323 H   0  0  0  0  0  0  0  0  0  0  0  0
   -7.3448   -0.6617    0.7140 H   0  0  0  0  0  0  0  0  0  0  0  0
   -7.4245   -1.5784   -0.7965 H   0  0  0  0  0  0  0  0  0  0  0  0
   -2.9445   -0.0919   -1.0545 H   0  0  0  0  0  0  0  0  0  0  0  0
   -3.1331   -1.8333   -0.8542 H   0  0  0  0  0  0  0  0  0  0  0  0
   -2.7974   -0.3917   -3.5196 H   0  0  0  0  0  0  0  0  0  0  0  0
   -3.1845   -2.1147   -3.3655 H   0  0  0  0  0  0  0  0  0  0  0  0
   -0.7850   -1.7955   -3.6908 H   0  0  0  0  0  0  0  0  0  0  0  0
   -1.0893   -2.4529   -2.0504 H   0  0  0  0  0  0  0  0  0  0  0  0
    1.1675   -2.5081   -2.6561 H   0  0  0  0  0  0  0  0  0  0  0  0
    3.1483    1.3977   -0.3735 H   0  0  0  0  0  0  0  0  0  0  0  0
    1.7886    3.2345   -0.7426 H   0  0  0  0  0  0  0  0  0  0  0  0
    0.1856    3.4180   -0.0212 H   0  0  0  0  0  0  0  0  0  0  0  0
    1.3683    2.3932    0.8004 H   0  0  0  0  0  0  0  0  0  0  0  0
    5.4316   -3.7526   -2.1417 H   0  0  0  0  0  0  0  0  0  0  0  0
    5.4552    1.2929   -0.7352 H   0  0  0  0  0  0  0  0  0  0  0  0
    5.1445   -1.3453    1.7565 H   0  0  0  0  0  0  0  0  0  0  0  0
    5.9777    3.2755    3.3773 H   0  0  0  0  0  0  0  0  0  0  0  0
    4.0188   -2.4772    3.4506 H   0  0  0  0  0  0  0  0  0  0  0  0
    4.7972   -2.9767    4.9568 H   0  0  0  0  0  0  0  0  0  0  0  0
    5.8052   -2.7410    3.5240 H   0  0  0  0  0  0  0  0  0  0  0  0
  1  2  1  0
  2  3  1  0
  3  4  1  0
  4  5  1  0
  5  6  1  0
  6  7  1  0
  5  8  1  0
  8  9  1  0
  9 10  1  0
 10 11  1  0
 11 12  1  0
 12 13  2  0
 13 14  1  0
 14 15  2  0
 15 16  1  0
 16 17  2  0
 17 18  1  0
 18 19  1  0
 15 20  1  0
 20 21  2  0
 21 22  1  0
 22 23  2  0
 21 24  1  0
 24 25  3  0
 20 26  1  0
 26 27  1  0
 27 28  2  0
 28 29  1  0
 29 30  2  0
 30 31  1  0
 31 32  2  0
 32 33  1  0
 30 34  1  0
 29 35  1  0
 35 36  1  0
  7  2  1  0
 17 12  1  0
 23 14  1  0
 32 27  1  0
  1 37  1  0
  1 38  1  0
  1 39  1  0
  3 40  1  0
  3 41  1  0
  4 42  1  0
  4 43  1  0
  6 44  1  0
  6 45  1  0
  7 46  1  0
  7 47  1  0
  8 48  1  0
  8 49  1  0
  9 50  1  0
  9 51  1  0
 10 52  1  0
 10 53  1  0
 13 54  1  0
 16 55  1  0
 19 56  1  0
 19 57  1  0
 19 58  1  0
 22 59  1  0
 26 60  1  0
 28 61  1  0
 31 62  1  0
 36 63  1  0
 36 64  1  0
 36 65  1  0
M  END
>  <energy_abs>  (1) 
176.89233865451843

>  <SMILES>  (1) 
CN1CCN(CC1)CCCOc2cc3c(cc2OC)c(c(cn3)C#N)Nc4cc(c(cc4Cl)Cl)OC

>  <cluster_no>  (1) 
172

>  <fda_drugs_id>  (1) 
4MXO_DB8

>  <initial_conformation_id>  (1) 
127

>  <minimize_method>  (1) 
MMFF

$$$$
