
     RDKit          3D

 44 47  0  0  0  0  0  0  0  0999 V2000
    1.6444   -1.6109   -0.3643 C   0  0  0  0  0  0  0  0  0  0  0  0
    0.3000   -1.4109   -0.6727 C   0  0  0  0  0  0  0  0  0  0  0  0
   -0.6392   -1.4204    0.3513 C   0  0  0  0  0  0  0  0  0  0  0  0
   -0.3010   -1.6336    1.6343 N   0  0  0  0  0  0  0  0  0  0  0  0
    1.0106   -1.8226    1.9121 C   0  0  0  0  0  0  0  0  0  0  0  0
    2.0256   -1.8219    0.9613 C   0  0  0  0  0  0  0  0  0  0  0  0
    3.4601   -2.0404    1.3532 C   0  0  0  0  0  0  0  0  0  0  0  0
    4.0169   -0.6884    1.6645 C   0  0  0  0  0  0  0  0  0  0  0  0
    3.9669   -0.0367    2.8884 C   0  0  0  0  0  0  0  0  0  0  0  0
    4.5891    1.1780    2.7608 N   0  0  0  0  0  0  0  0  0  0  0  0
    5.0630    1.3240    1.4885 C   0  0  0  0  0  0  0  0  0  0  0  0
    4.7321    0.1772    0.7722 C   0  0  0  0  0  0  0  0  0  0  0  0
    5.1405    0.1208   -0.5730 C   0  0  0  0  0  0  0  0  0  0  0  0
    5.8365    1.2166   -1.0811 C   0  0  0  0  0  0  0  0  0  0  0  0
    6.0979    2.3011   -0.2526 C   0  0  0  0  0  0  0  0  0  0  0  0
    5.7323    2.4063    1.0491 N   0  0  0  0  0  0  0  0  0  0  0  0
    6.3620    1.2188   -2.7174 Cl  0  0  0  0  0  0  0  0  0  0  0  0
   -2.0024   -1.2329    0.1115 N   0  0  0  0  0  0  0  0  0  0  0  0
   -2.3088    0.0791   -0.4487 C   0  0  0  0  0  0  0  0  0  0  0  0
   -3.8014    0.2669   -0.5309 C   0  0  0  0  0  0  0  0  0  0  0  0
   -4.6355   -0.6884   -1.1177 C   0  0  0  0  0  0  0  0  0  0  0  0
   -6.0077   -0.4596   -1.1988 C   0  0  0  0  0  0  0  0  0  0  0  0
   -6.5301    0.7318   -0.6934 C   0  0  0  0  0  0  0  0  0  0  0  0
   -5.7281    1.6841   -0.1355 N   0  0  0  0  0  0  0  0  0  0  0  0
   -4.4004    1.4312   -0.0669 C   0  0  0  0  0  0  0  0  0  0  0  0
   -8.0287    0.9823   -0.8050 C   0  0  0  0  0  0  0  0  0  0  0  0
   -8.4939    1.9823   -0.0037 F   0  0  0  0  0  0  0  0  0  0  0  0
   -8.4087    1.3128   -2.0743 F   0  0  0  0  0  0  0  0  0  0  0  0
   -8.7702   -0.1199   -0.4820 F   0  0  0  0  0  0  0  0  0  0  0  0
    2.3815   -1.6060   -1.1621 H   0  0  0  0  0  0  0  0  0  0  0  0
   -0.0052   -1.2701   -1.7034 H   0  0  0  0  0  0  0  0  0  0  0  0
    1.2271   -1.9815    2.9655 H   0  0  0  0  0  0  0  0  0  0  0  0
    4.0150   -2.5249    0.5418 H   0  0  0  0  0  0  0  0  0  0  0  0
    3.5279   -2.7034    2.2237 H   0  0  0  0  0  0  0  0  0  0  0  0
    3.5335   -0.3306    3.8356 H   0  0  0  0  0  0  0  0  0  0  0  0
    4.7011    1.8756    3.4821 H   0  0  0  0  0  0  0  0  0  0  0  0
    4.9232   -0.7421   -1.1917 H   0  0  0  0  0  0  0  0  0  0  0  0
    6.6397    3.1643   -0.6324 H   0  0  0  0  0  0  0  0  0  0  0  0
   -2.4178   -1.3274    1.0396 H   0  0  0  0  0  0  0  0  0  0  0  0
   -1.8688    0.8669    0.1769 H   0  0  0  0  0  0  0  0  0  0  0  0
   -1.9009    0.1850   -1.4614 H   0  0  0  0  0  0  0  0  0  0  0  0
   -4.2170   -1.6153   -1.5062 H   0  0  0  0  0  0  0  0  0  0  0  0
   -6.6580   -1.2045   -1.6499 H   0  0  0  0  0  0  0  0  0  0  0  0
   -3.8159    2.2267    0.3899 H   0  0  0  0  0  0  0  0  0  0  0  0
  1  2  2  0
  2  3  1  0
  3  4  2  0
  4  5  1  0
  5  6  2  0
  6  7  1  0
  7  8  1  0
  8  9  2  0
  9 10  1  0
 10 11  1  0
 11 12  2  0
 12 13  1  0
 13 14  2  0
 14 15  1  0
 15 16  2  0
 14 17  1  0
  3 18  1  0
 18 19  1  0
 19 20  1  0
 20 21  2  0
 21 22  1  0
 22 23  2  0
 23 24  1  0
 24 25  2  0
 23 26  1  0
 26 27  1  0
 26 28  1  0
 26 29  1  0
  6  1  1  0
 12  8  1  0
 16 11  1  0
 25 20  1  0
  1 30  1  0
  2 31  1  0
  5 32  1  0
  7 33  1  0
  7 34  1  0
  9 35  1  0
 10 36  1  0
 13 37  1  0
 15 38  1  0
 18 39  1  0
 19 40  1  0
 19 41  1  0
 21 42  1  0
 22 43  1  0
 25 44  1  0
M  END
>  <energy_abs>  (1) 
80.08590525876626

>  <SMILES>  (1) 
c1cc(ncc1Cc2c[nH]c3c2cc(cn3)Cl)NCc4ccc(nc4)C(F)(F)F

>  <cluster_no>  (1) 
14

>  <fda_drugs_id>  (1) 
4R7H_P31

>  <initial_conformation_id>  (1) 
288

>  <minimize_method>  (1) 
MMFF

$$$$
