
     RDKit          3D

 42 44  0  0  0  0  0  0  0  0999 V2000
   -0.2210    5.2932    0.3829 C   0  0  0  0  0  0  0  0  0  0  0  0
   -1.0468    4.2229   -0.1177 N   0  0  0  0  0  0  0  0  0  0  0  0
   -2.3060    4.3649   -0.6241 C   0  0  0  0  0  0  0  0  0  0  0  0
   -2.8001    3.2131   -1.0142 N   0  0  0  0  0  0  0  0  0  0  0  0
   -1.8188    2.2812   -0.7544 C   0  0  0  0  0  0  0  0  0  0  0  0
   -0.7077    2.8923   -0.1777 C   0  0  0  0  0  0  0  0  0  0  0  0
    0.4372    2.1802    0.1897 C   0  0  0  0  0  0  0  0  0  0  0  0
    0.4283    0.7872   -0.0412 C   0  0  0  0  0  0  0  0  0  0  0  0
   -0.6693    0.1181   -0.6379 C   0  0  0  0  0  0  0  0  0  0  0  0
   -1.7948    0.8924   -0.9874 C   0  0  0  0  0  0  0  0  0  0  0  0
   -2.8486    0.3264   -1.5977 F   0  0  0  0  0  0  0  0  0  0  0  0
   -0.6229   -1.2884   -0.7967 N   0  0  0  0  0  0  0  0  0  0  0  0
   -1.6042   -2.2977   -0.8591 C   0  0  0  0  0  0  0  0  0  0  0  0
   -2.8784   -2.1398   -0.2987 C   0  0  0  0  0  0  0  0  0  0  0  0
   -3.8422   -3.1502   -0.3915 C   0  0  0  0  0  0  0  0  0  0  0  0
   -3.5401   -4.3386   -1.0494 C   0  0  0  0  0  0  0  0  0  0  0  0
   -2.2842   -4.5306   -1.6136 C   0  0  0  0  0  0  0  0  0  0  0  0
   -1.3277   -3.5160   -1.5171 C   0  0  0  0  0  0  0  0  0  0  0  0
    0.2249   -3.7997   -2.2314 Cl  0  0  0  0  0  0  0  0  0  0  0  0
   -4.8438   -5.7015   -1.1715 Br  0  0  0  0  0  0  0  0  0  0  0  0
    1.6414    0.0112    0.3388 C   0  0  0  0  0  0  0  0  0  0  0  0
    2.0536   -0.8841   -0.3948 O   0  0  0  0  0  0  0  0  0  0  0  0
    2.2157    0.3623    1.5476 N   0  0  0  0  0  0  0  0  0  0  0  0
    3.1213   -0.6190    2.0302 O   0  0  0  0  0  0  0  0  0  0  0  0
    4.4680   -0.1531    1.8608 C   0  0  0  0  0  0  0  0  0  0  0  0
    5.2096   -1.0850    0.9066 C   0  0  0  0  0  0  0  0  0  0  0  0
    4.8125   -0.8530   -0.4423 O   0  0  0  0  0  0  0  0  0  0  0  0
    0.6927    5.3348   -0.2155 H   0  0  0  0  0  0  0  0  0  0  0  0
    0.0141    5.0884    1.4304 H   0  0  0  0  0  0  0  0  0  0  0  0
   -0.7593    6.2411    0.3030 H   0  0  0  0  0  0  0  0  0  0  0  0
   -2.8146    5.3186   -0.6900 H   0  0  0  0  0  0  0  0  0  0  0  0
    1.3025    2.6852    0.6072 H   0  0  0  0  0  0  0  0  0  0  0  0
    0.3250   -1.6388   -0.9858 H   0  0  0  0  0  0  0  0  0  0  0  0
   -3.1391   -1.2296    0.2345 H   0  0  0  0  0  0  0  0  0  0  0  0
   -4.8220   -2.9935    0.0528 H   0  0  0  0  0  0  0  0  0  0  0  0
   -2.0453   -5.4576   -2.1268 H   0  0  0  0  0  0  0  0  0  0  0  0
    1.6096    0.7467    2.2653 H   0  0  0  0  0  0  0  0  0  0  0  0
    4.4948    0.8811    1.4959 H   0  0  0  0  0  0  0  0  0  0  0  0
    4.9398   -0.1849    2.8479 H   0  0  0  0  0  0  0  0  0  0  0  0
    5.0162   -2.1363    1.1418 H   0  0  0  0  0  0  0  0  0  0  0  0
    6.2863   -0.9011    0.9639 H   0  0  0  0  0  0  0  0  0  0  0  0
    3.8479   -1.0422   -0.4864 H   0  0  0  0  0  0  0  0  0  0  0  0
  1  2  1  0
  2  3  1  0
  3  4  2  0
  4  5  1  0
  5  6  2  0
  6  7  1  0
  7  8  2  0
  8  9  1  0
  9 10  2  0
 10 11  1  0
  9 12  1  0
 12 13  1  0
 13 14  2  0
 14 15  1  0
 15 16  2  0
 16 17  1  0
 17 18  2  0
 18 19  1  0
 16 20  1  0
  8 21  1  0
 21 22  2  0
 21 23  1  0
 23 24  1  0
 24 25  1  0
 25 26  1  0
 26 27  1  0
  6  2  1  0
 10  5  1  0
 18 13  1  0
  1 28  1  0
  1 29  1  0
  1 30  1  0
  3 31  1  0
  7 32  1  0
 12 33  1  0
 14 34  1  0
 15 35  1  0
 17 36  1  0
 23 37  1  0
 25 38  1  0
 25 39  1  0
 26 40  1  0
 26 41  1  0
 27 42  1  0
M  END
>  <energy_abs>  (1) 
122.41128790405128

>  <SMILES>  (1) 
Cn1cnc2c1cc(c(c2F)Nc3ccc(cc3Cl)Br)C(=O)NOCCO

>  <cluster_no>  (1) 
9

>  <fda_drugs_id>  (1) 
4U7Z_3EW

>  <initial_conformation_id>  (1) 
136

>  <minimize_method>  (1) 
MMFF

$$$$
