
     RDKit          3D

 49 53  0  0  0  0  0  0  0  0999 V2000
    1.3453   -3.8140    0.6975 C   0  0  0  0  0  0  0  0  0  0  0  0
    0.8465   -2.5210    1.3292 C   0  0  0  0  0  0  0  0  0  0  0  0
    0.6690   -1.3910    0.2956 C   0  0  1  0  0  0  0  0  0  0  0  0
   -0.0308   -0.1934    1.0110 C   0  0  0  0  0  0  0  0  0  0  0  0
    0.7633    0.6870    1.5560 N   0  0  0  0  0  0  0  0  0  0  0  0
    0.2134    1.7329    2.2969 C   0  0  0  0  0  0  0  0  0  0  0  0
    1.0770    2.7149    2.7969 C   0  0  0  0  0  0  0  0  0  0  0  0
    0.5885    3.7721    3.5660 C   0  0  0  0  0  0  0  0  0  0  0  0
   -0.7736    3.8483    3.8411 C   0  0  0  0  0  0  0  0  0  0  0  0
   -1.6352    2.8723    3.3444 C   0  0  0  0  0  0  0  0  0  0  0  0
   -1.1463    1.8163    2.5733 C   0  0  0  0  0  0  0  0  0  0  0  0
   -2.0236    0.7767    2.0110 C   0  0  0  0  0  0  0  0  0  0  0  0
   -3.2197    0.7967    2.2917 O   0  0  0  0  0  0  0  0  0  0  0  0
   -1.4125   -0.1645    1.1641 N   0  0  0  0  0  0  0  0  0  0  0  0
   -2.2707   -1.0920    0.4937 C   0  0  0  0  0  0  0  0  0  0  0  0
   -2.2568   -1.1934   -0.9037 C   0  0  0  0  0  0  0  0  0  0  0  0
   -3.0965   -2.0963   -1.5598 C   0  0  0  0  0  0  0  0  0  0  0  0
   -3.9717   -2.8940   -0.8265 C   0  0  0  0  0  0  0  0  0  0  0  0
   -4.0173   -2.7809    0.5611 C   0  0  0  0  0  0  0  0  0  0  0  0
   -3.1771   -1.8787    1.2178 C   0  0  0  0  0  0  0  0  0  0  0  0
   -2.9390    2.9905    3.6301 F   0  0  0  0  0  0  0  0  0  0  0  0
    2.0085   -0.9678   -0.1707 N   0  0  0  0  0  0  0  0  0  0  0  0
    2.0165   -0.2180   -1.3497 C   0  0  0  0  0  0  0  0  0  0  0  0
    3.1290    0.5062   -1.7406 C   0  0  0  0  0  0  0  0  0  0  0  0
    3.1211    1.2548   -2.9021 C   0  0  0  0  0  0  0  0  0  0  0  0
    4.3205    1.8898   -3.0890 N   0  0  0  0  0  0  0  0  0  0  0  0
    5.0624    1.5204   -2.0689 C   0  0  0  0  0  0  0  0  0  0  0  0
    4.3853    0.6801   -1.2289 N   0  0  0  0  0  0  0  0  0  0  0  0
    2.0621    1.3305   -3.7252 N   0  0  0  0  0  0  0  0  0  0  0  0
    1.0327    0.5921   -3.2964 C   0  0  0  0  0  0  0  0  0  0  0  0
    0.9508   -0.1613   -2.1769 N   0  0  0  0  0  0  0  0  0  0  0  0
    0.6525   -4.1650   -0.0741 H   0  0  0  0  0  0  0  0  0  0  0  0
    1.4287   -4.5966    1.4583 H   0  0  0  0  0  0  0  0  0  0  0  0
    2.3315   -3.6823    0.2419 H   0  0  0  0  0  0  0  0  0  0  0  0
    1.5479   -2.2126    2.1150 H   0  0  0  0  0  0  0  0  0  0  0  0
   -0.1072   -2.7270    1.8293 H   0  0  0  0  0  0  0  0  0  0  0  0
    0.0917   -1.7919   -0.5354 H   0  0  0  0  0  0  0  0  0  0  0  0
    2.1414    2.6522    2.5826 H   0  0  0  0  0  0  0  0  0  0  0  0
    1.2677    4.5306    3.9474 H   0  0  0  0  0  0  0  0  0  0  0  0
   -1.1757    4.6629    4.4368 H   0  0  0  0  0  0  0  0  0  0  0  0
   -1.6119   -0.5530   -1.5008 H   0  0  0  0  0  0  0  0  0  0  0  0
   -3.0754   -2.1672   -2.6445 H   0  0  0  0  0  0  0  0  0  0  0  0
   -4.6305   -3.5919   -1.3373 H   0  0  0  0  0  0  0  0  0  0  0  0
   -4.7142   -3.3872    1.1344 H   0  0  0  0  0  0  0  0  0  0  0  0
   -3.2370   -1.8006    2.3012 H   0  0  0  0  0  0  0  0  0  0  0  0
    2.4623   -0.4284    0.5664 H   0  0  0  0  0  0  0  0  0  0  0  0
    6.0865    1.8211   -1.8896 H   0  0  0  0  0  0  0  0  0  0  0  0
    4.7509    0.2433   -0.3950 H   0  0  0  0  0  0  0  0  0  0  0  0
    0.1486    0.6004   -3.9267 H   0  0  0  0  0  0  0  0  0  0  0  0
  1  2  1  0
  2  3  1  0
  3  4  1  0
  4  5  2  0
  5  6  1  0
  6  7  2  0
  7  8  1  0
  8  9  2  0
  9 10  1  0
 10 11  2  0
 11 12  1  0
 12 13  2  0
 12 14  1  0
 14 15  1  0
 15 16  2  0
 16 17  1  0
 17 18  2  0
 18 19  1  0
 19 20  2  0
 10 21  1  0
  3 22  1  0
 22 23  1  0
 23 24  1  0
 24 25  2  0
 25 26  1  0
 26 27  2  0
 27 28  1  0
 25 29  1  0
 29 30  2  0
 30 31  1  0
 14  4  1  0
 11  6  1  0
 20 15  1  0
 31 23  2  0
 28 24  1  0
  1 32  1  0
  1 33  1  0
  1 34  1  0
  2 35  1  0
  2 36  1  0
  3 37  1  6
  7 38  1  0
  8 39  1  0
  9 40  1  0
 16 41  1  0
 17 42  1  0
 18 43  1  0
 19 44  1  0
 20 45  1  0
 22 46  1  0
 27 47  1  0
 28 48  1  0
 30 49  1  0
M  END
>  <energy_abs>  (1) 
-11.262547076754988

>  <SMILES>  (1) 
CC[C@@H](C1=Nc2cccc(c2C(=O)N1c3ccccc3)F)Nc4c5c(nc[nH]5)ncn4

>  <cluster_no>  (1) 
2

>  <fda_drugs_id>  (1) 
4XE0_40L

>  <initial_conformation_id>  (1) 
89

>  <minimize_method>  (1) 
MMFF

$$$$
