
     RDKit          3D

 55 58  0  0  0  0  0  0  0  0999 V2000
   -3.9311   -3.1789    1.3484 C   0  0  0  0  0  0  0  0  0  0  0  0
   -3.9591   -2.1277    0.2236 C   0  0  0  0  0  0  0  0  0  0  0  0
   -5.3687   -1.5182    0.1147 C   0  0  0  0  0  0  0  0  0  0  0  0
   -3.6477   -2.8478   -1.1068 C   0  0  0  0  0  0  0  0  0  0  0  0
   -2.9199   -1.0375    0.4766 C   0  0  0  0  0  0  0  0  0  0  0  0
   -1.9286   -0.7613   -0.3447 N   0  0  0  0  0  0  0  0  0  0  0  0
   -1.1526    0.2743    0.1550 C   0  0  0  0  0  0  0  0  0  0  0  0
   -1.5722    0.8076    1.3655 C   0  0  0  0  0  0  0  0  0  0  0  0
   -2.9660   -0.0554    1.8922 S   0  0  0  0  0  0  0  0  0  0  0  0
   -1.0587    1.9330    2.1502 C   0  0  0  0  0  0  0  0  0  0  0  0
   -0.9376    1.8960    3.5228 C   0  0  0  0  0  0  0  0  0  0  0  0
   -0.4180    3.0275    4.0992 C   0  0  0  0  0  0  0  0  0  0  0  0
   -0.0462    4.1125    3.3983 N   0  0  0  0  0  0  0  0  0  0  0  0
   -0.2170    4.0571    2.0760 C   0  0  0  0  0  0  0  0  0  0  0  0
   -0.6941    3.0032    1.4139 N   0  0  0  0  0  0  0  0  0  0  0  0
    0.1761    5.1509    1.3364 N   0  0  0  0  0  0  0  0  0  0  0  0
   -0.0005    0.7303   -0.6038 C   0  0  0  0  0  0  0  0  0  0  0  0
   -0.1553    1.0777   -1.9521 C   0  0  0  0  0  0  0  0  0  0  0  0
    0.9400    1.5188   -2.6994 C   0  0  0  0  0  0  0  0  0  0  0  0
    2.2033    1.6018   -2.1112 C   0  0  0  0  0  0  0  0  0  0  0  0
    2.3739    1.2327   -0.7779 C   0  0  0  0  0  0  0  0  0  0  0  0
    1.2715    0.8018   -0.0316 C   0  0  0  0  0  0  0  0  0  0  0  0
    1.4673    0.4252    1.2446 F   0  0  0  0  0  0  0  0  0  0  0  0
    3.6660    1.2564   -0.1592 N   0  0  0  0  0  0  0  0  0  0  0  0
    4.8679    0.2242   -0.7678 S   0  0  0  0  0  6  0  0  0  0  0  0
    5.1379    0.6148   -2.1343 O   0  0  0  0  0  0  0  0  0  0  0  0
    5.9347    0.2106    0.2110 O   0  0  0  0  0  0  0  0  0  0  0  0
    4.1147   -1.3556   -0.7425 C   0  0  0  0  0  0  0  0  0  0  0  0
    3.9149   -2.0884   -1.9023 C   0  0  0  0  0  0  0  0  0  0  0  0
    3.3100   -3.3448   -1.8448 C   0  0  0  0  0  0  0  0  0  0  0  0
    2.9060   -3.8726   -0.6182 C   0  0  0  0  0  0  0  0  0  0  0  0
    3.1107   -3.1378    0.5484 C   0  0  0  0  0  0  0  0  0  0  0  0
    3.7165   -1.8847    0.4792 C   0  0  0  0  0  0  0  0  0  0  0  0
    3.8738   -1.1906    1.6149 F   0  0  0  0  0  0  0  0  0  0  0  0
    4.2799   -1.6288   -3.1047 F   0  0  0  0  0  0  0  0  0  0  0  0
   -2.9284   -3.6060    1.4679 H   0  0  0  0  0  0  0  0  0  0  0  0
   -4.6220   -4.0030    1.1354 H   0  0  0  0  0  0  0  0  0  0  0  0
   -4.2249   -2.7534    2.3144 H   0  0  0  0  0  0  0  0  0  0  0  0
   -5.4084   -0.7466   -0.6633 H   0  0  0  0  0  0  0  0  0  0  0  0
   -6.1114   -2.2843   -0.1364 H   0  0  0  0  0  0  0  0  0  0  0  0
   -5.6880   -1.0543    1.0545 H   0  0  0  0  0  0  0  0  0  0  0  0
   -4.3800   -3.6371   -1.3122 H   0  0  0  0  0  0  0  0  0  0  0  0
   -2.6556   -3.3147   -1.0861 H   0  0  0  0  0  0  0  0  0  0  0  0
   -3.6673   -2.1508   -1.9532 H   0  0  0  0  0  0  0  0  0  0  0  0
   -1.2124    1.0372    4.1185 H   0  0  0  0  0  0  0  0  0  0  0  0
   -0.2762    3.0985    5.1736 H   0  0  0  0  0  0  0  0  0  0  0  0
    0.4056    4.8710    0.3936 H   0  0  0  0  0  0  0  0  0  0  0  0
    0.8677    5.6817    1.8467 H   0  0  0  0  0  0  0  0  0  0  0  0
   -1.1354    1.0118   -2.4222 H   0  0  0  0  0  0  0  0  0  0  0  0
    0.8088    1.7967   -3.7430 H   0  0  0  0  0  0  0  0  0  0  0  0
    3.0448    1.9537   -2.7040 H   0  0  0  0  0  0  0  0  0  0  0  0
    3.6661    1.2367    0.8643 H   0  0  0  0  0  0  0  0  0  0  0  0
    3.1569   -3.9047   -2.7638 H   0  0  0  0  0  0  0  0  0  0  0  0
    2.4321   -4.8506   -0.5737 H   0  0  0  0  0  0  0  0  0  0  0  0
    2.7980   -3.5304    1.5121 H   0  0  0  0  0  0  0  0  0  0  0  0
  1  2  1  0
  2  3  1  0
  2  4  1  0
  2  5  1  0
  5  6  2  0
  6  7  1  0
  7  8  2  0
  8  9  1  0
  8 10  1  0
 10 11  2  0
 11 12  1  0
 12 13  2  0
 13 14  1  0
 14 15  2  0
 14 16  1  0
  7 17  1  0
 17 18  2  0
 18 19  1  0
 19 20  2  0
 20 21  1  0
 21 22  2  0
 22 23  1  0
 21 24  1  0
 24 25  1  0
 25 26  2  0
 25 27  2  0
 25 28  1  0
 28 29  2  0
 29 30  1  0
 30 31  2  0
 31 32  1  0
 32 33  2  0
 33 34  1  0
 29 35  1  0
  9  5  1  0
 15 10  1  0
 22 17  1  0
 33 28  1  0
  1 36  1  0
  1 37  1  0
  1 38  1  0
  3 39  1  0
  3 40  1  0
  3 41  1  0
  4 42  1  0
  4 43  1  0
  4 44  1  0
 11 45  1  0
 12 46  1  0
 16 47  1  0
 16 48  1  0
 18 49  1  0
 19 50  1  0
 20 51  1  0
 24 52  1  0
 30 53  1  0
 31 54  1  0
 32 55  1  0
M  END
>  <energy_abs>  (1) 
-119.23059582406255

>  <SMILES>  (1) 
CC(C)(C)c1nc(c(s1)c2ccnc(n2)N)c3cccc(c3F)NS(=O)(=O)c4c(cccc4F)F

>  <cluster_no>  (1) 
265

>  <fda_drugs_id>  (1) 
4XV2_P06

>  <initial_conformation_id>  (1) 
22

>  <minimize_method>  (1) 
MMFF

$$$$
