
     RDKit          3D

 75 80  0  0  0  0  0  0  0  0999 V2000
   -5.1875    3.7606   -5.5480 C   0  0  0  0  0  0  0  0  0  0  0  0
   -4.6352    2.8720   -4.5279 N   0  0  0  0  0  0  0  0  0  0  0  0
   -4.9396    3.3809   -3.1721 C   0  0  0  0  0  0  0  0  0  0  0  0
   -4.3334    2.4941   -2.0592 C   0  0  0  0  0  0  0  0  0  0  0  0
   -2.8698    2.3682   -2.2342 N   0  0  0  0  0  0  0  0  0  0  0  0
   -2.5182    1.8696   -3.5872 C   0  0  0  0  0  0  0  0  0  0  0  0
   -3.1684    2.7522   -4.6794 C   0  0  0  0  0  0  0  0  0  0  0  0
   -2.1321    1.7598   -1.2046 C   0  0  0  0  0  0  0  0  0  0  0  0
   -0.7445    1.9511   -1.1573 C   0  0  0  0  0  0  0  0  0  0  0  0
    0.0412    1.3499   -0.1733 C   0  0  0  0  0  0  0  0  0  0  0  0
   -0.5545    0.5421    0.8052 C   0  0  0  0  0  0  0  0  0  0  0  0
   -1.9582    0.3928    0.8527 C   0  0  0  0  0  0  0  0  0  0  0  0
   -2.7100    0.9793   -0.1864 C   0  0  0  0  0  0  0  0  0  0  0  0
   -2.5703   -0.4316    1.8244 N   0  0  0  0  0  0  0  0  0  0  0  0
   -3.8572   -0.0222    2.4060 C   0  0  0  0  0  0  0  0  0  0  0  0
   -4.4250   -1.1974    3.2077 C   0  0  0  0  0  0  0  0  0  0  0  0
   -5.6999   -0.7720    3.9197 C   0  0  0  0  0  0  0  0  0  0  0  0
   -5.4587    0.3523    4.7634 O   0  0  0  0  0  0  0  0  0  0  0  0
   -5.0000    1.4910    4.0369 C   0  0  0  0  0  0  0  0  0  0  0  0
   -3.6901    1.1927    3.3229 C   0  0  0  0  0  0  0  0  0  0  0  0
    0.3139   -0.1231    1.8235 C   0  0  0  0  0  0  0  0  0  0  0  0
   -0.0795   -0.1526    2.9844 O   0  0  0  0  0  0  0  0  0  0  0  0
    1.4654   -0.6791    1.3042 N   0  0  0  0  0  0  0  0  0  0  0  0
    2.4258   -1.3560    2.0318 C   0  0  0  0  0  0  0  0  0  0  0  0
    3.5755   -1.9746    1.4480 C   0  0  0  0  0  0  0  0  0  0  0  0
    4.1062   -2.1195    0.1491 C   0  0  0  0  0  0  0  0  0  0  0  0
    5.3105   -2.8269   -0.0342 C   0  0  0  0  0  0  0  0  0  0  0  0
    5.9697   -3.3744    1.0762 C   0  0  0  0  0  0  0  0  0  0  0  0
    5.4597   -3.2425    2.3726 C   0  0  0  0  0  0  0  0  0  0  0  0
    4.2637   -2.5359    2.5162 C   0  0  0  0  0  0  0  0  0  0  0  0
    3.5158   -2.2286    3.6187 N   0  0  0  0  0  0  0  0  0  0  0  0
    2.4156   -1.5145    3.3556 N   0  0  0  0  0  0  0  0  0  0  0  0
    5.9010   -2.9721   -1.4194 C   0  0  0  0  0  0  0  0  0  0  0  0
    6.6829   -1.7594   -1.8672 C   0  0  0  0  0  0  0  0  0  0  0  0
    7.9957   -1.5491   -1.4190 C   0  0  0  0  0  0  0  0  0  0  0  0
    8.7036   -0.4198   -1.8276 C   0  0  0  0  0  0  0  0  0  0  0  0
    8.1340    0.5166   -2.6769 C   0  0  0  0  0  0  0  0  0  0  0  0
    6.8348    0.3114   -3.1164 C   0  0  0  0  0  0  0  0  0  0  0  0
    6.1060   -0.8097   -2.7223 C   0  0  0  0  0  0  0  0  0  0  0  0
    6.2671    1.2054   -3.9361 F   0  0  0  0  0  0  0  0  0  0  0  0
    9.9568   -0.2380   -1.3911 F   0  0  0  0  0  0  0  0  0  0  0  0
   -4.7669    4.7714   -5.4917 H   0  0  0  0  0  0  0  0  0  0  0  0
   -6.2757    3.8347   -5.4432 H   0  0  0  0  0  0  0  0  0  0  0  0
   -4.9931    3.3611   -6.5494 H   0  0  0  0  0  0  0  0  0  0  0  0
   -6.0264    3.4090   -3.0304 H   0  0  0  0  0  0  0  0  0  0  0  0
   -4.5657    4.4064   -3.0574 H   0  0  0  0  0  0  0  0  0  0  0  0
   -4.5606    2.9572   -1.0909 H   0  0  0  0  0  0  0  0  0  0  0  0
   -4.8117    1.5062   -2.0937 H   0  0  0  0  0  0  0  0  0  0  0  0
   -1.4348    1.8804   -3.7527 H   0  0  0  0  0  0  0  0  0  0  0  0
   -2.8599    0.8322   -3.6988 H   0  0  0  0  0  0  0  0  0  0  0  0
   -2.7023    3.7466   -4.6511 H   0  0  0  0  0  0  0  0  0  0  0  0
   -2.9387    2.3100   -5.6562 H   0  0  0  0  0  0  0  0  0  0  0  0
   -0.2649    2.5984   -1.8885 H   0  0  0  0  0  0  0  0  0  0  0  0
    1.1097    1.5464   -0.1637 H   0  0  0  0  0  0  0  0  0  0  0  0
   -3.7744    0.7825   -0.2216 H   0  0  0  0  0  0  0  0  0  0  0  0
   -1.8902   -0.6138    2.5809 H   0  0  0  0  0  0  0  0  0  0  0  0
   -4.5849    0.2094    1.6206 H   0  0  0  0  0  0  0  0  0  0  0  0
   -3.6873   -1.5257    3.9520 H   0  0  0  0  0  0  0  0  0  0  0  0
   -4.6240   -2.0512    2.5500 H   0  0  0  0  0  0  0  0  0  0  0  0
   -6.4937   -0.5260    3.2051 H   0  0  0  0  0  0  0  0  0  0  0  0
   -6.0660   -1.5888    4.5490 H   0  0  0  0  0  0  0  0  0  0  0  0
   -5.7761    1.8066    3.3296 H   0  0  0  0  0  0  0  0  0  0  0  0
   -4.8565    2.3080    4.7520 H   0  0  0  0  0  0  0  0  0  0  0  0
   -2.9127    0.9825    4.0693 H   0  0  0  0  0  0  0  0  0  0  0  0
   -3.3650    2.0729    2.7577 H   0  0  0  0  0  0  0  0  0  0  0  0
    1.6009   -0.6747    0.3058 H   0  0  0  0  0  0  0  0  0  0  0  0
    3.5918   -1.6854   -0.7026 H   0  0  0  0  0  0  0  0  0  0  0  0
    6.9029   -3.9192    0.9398 H   0  0  0  0  0  0  0  0  0  0  0  0
    5.9775   -3.6725    3.2239 H   0  0  0  0  0  0  0  0  0  0  0  0
    3.7027   -2.4742    4.5836 H   0  0  0  0  0  0  0  0  0  0  0  0
    5.0945   -3.1863   -2.1335 H   0  0  0  0  0  0  0  0  0  0  0  0
    6.5515   -3.8560   -1.4622 H   0  0  0  0  0  0  0  0  0  0  0  0
    8.4780   -2.2550   -0.7481 H   0  0  0  0  0  0  0  0  0  0  0  0
    8.6913    1.3913   -2.9883 H   0  0  0  0  0  0  0  0  0  0  0  0
    5.0912   -0.9290   -3.0910 H   0  0  0  0  0  0  0  0  0  0  0  0
  1  2  1  0
  2  3  1  0
  3  4  1  0
  4  5  1  0
  5  6  1  0
  6  7  1  0
  5  8  1  0
  8  9  2  0
  9 10  1  0
 10 11  2  0
 11 12  1  0
 12 13  2  0
 12 14  1  0
 14 15  1  0
 15 16  1  0
 16 17  1  0
 17 18  1  0
 18 19  1  0
 19 20  1  0
 11 21  1  0
 21 22  2  0
 21 23  1  0
 23 24  1  0
 24 25  1  0
 25 26  2  0
 26 27  1  0
 27 28  2  0
 28 29  1  0
 29 30  2  0
 30 31  1  0
 31 32  1  0
 27 33  1  0
 33 34  1  0
 34 35  2  0
 35 36  1  0
 36 37  2  0
 37 38  1  0
 38 39  2  0
 38 40  1  0
 36 41  1  0
  7  2  1  0
 13  8  1  0
 20 15  1  0
 32 24  2  0
 30 25  1  0
 39 34  1  0
  1 42  1  0
  1 43  1  0
  1 44  1  0
  3 45  1  0
  3 46  1  0
  4 47  1  0
  4 48  1  0
  6 49  1  0
  6 50  1  0
  7 51  1  0
  7 52  1  0
  9 53  1  0
 10 54  1  0
 13 55  1  0
 14 56  1  0
 15 57  1  0
 16 58  1  0
 16 59  1  0
 17 60  1  0
 17 61  1  0
 19 62  1  0
 19 63  1  0
 20 64  1  0
 20 65  1  0
 23 66  1  0
 26 67  1  0
 28 68  1  0
 29 69  1  0
 31 70  1  0
 33 71  1  0
 33 72  1  0
 35 73  1  0
 37 74  1  0
 39 75  1  0
M  END
>  <energy_abs>  (1) 
136.63742297626638

>  <SMILES>  (1) 
CN1CCN(CC1)c2ccc(c(c2)NC3CCOCC3)C(=O)Nc4c5cc(ccc5[nH]n4)Cc6cc(cc(c6)F)F

>  <cluster_no>  (1) 
41

>  <fda_drugs_id>  (1) 
5KVT_YMX

>  <initial_conformation_id>  (1) 
263

>  <minimize_method>  (1) 
MMFF

$$$$
