
     RDKit          3D

 62 66  0  0  0  0  0  0  0  0999 V2000
   -6.0538    3.4045    0.7650 C   0  0  0  0  0  0  0  0  0  0  0  0
   -6.6398    2.5222   -0.2335 N   0  0  0  0  0  0  0  0  0  0  0  0
   -8.0617    2.6893   -0.4773 C   0  0  0  0  0  0  0  0  0  0  0  0
   -5.9826    1.4402   -0.8214 C   0  0  0  0  0  0  0  0  0  0  0  0
   -6.6014    0.5556   -1.4091 O   0  0  0  0  0  0  0  0  0  0  0  0
   -4.5322    1.4122   -0.7428 C   0  0  0  0  0  0  0  0  0  0  0  0
   -3.6437    2.4273   -1.0798 C   0  0  0  0  0  0  0  0  0  0  0  0
   -2.3281    1.9412   -0.9163 C   0  0  0  0  0  0  0  0  0  0  0  0
   -1.0420    2.4327   -1.0838 C   0  0  0  0  0  0  0  0  0  0  0  0
    0.0175    1.6343   -0.8229 N   0  0  0  0  0  0  0  0  0  0  0  0
   -0.1880    0.3672   -0.4095 C   0  0  0  0  0  0  0  0  0  0  0  0
   -1.3972   -0.1878   -0.2239 N   0  0  0  0  0  0  0  0  0  0  0  0
   -2.4272    0.6312   -0.4900 C   0  0  0  0  0  0  0  0  0  0  0  0
   -3.7644    0.3094   -0.3909 N   0  0  0  0  0  0  0  0  0  0  0  0
   -4.2766   -0.9825    0.0437 C   0  0  0  0  0  0  0  0  0  0  0  0
   -3.8312   -2.1715   -0.8295 C   0  0  0  0  0  0  0  0  0  0  0  0
   -3.1418   -3.1455    0.1209 C   0  0  0  0  0  0  0  0  0  0  0  0
   -3.7828   -2.8665    1.4699 C   0  0  0  0  0  0  0  0  0  0  0  0
   -3.9058   -1.3504    1.4904 C   0  0  0  0  0  0  0  0  0  0  0  0
    0.8777   -0.4748   -0.1410 N   0  0  0  0  0  0  0  0  0  0  0  0
    2.2529   -0.3626   -0.1952 C   0  0  0  0  0  0  0  0  0  0  0  0
    2.9354    0.7878   -0.5598 C   0  0  0  0  0  0  0  0  0  0  0  0
    4.3369    0.7951   -0.5882 C   0  0  0  0  0  0  0  0  0  0  0  0
    5.0686   -0.3454   -0.2635 C   0  0  0  0  0  0  0  0  0  0  0  0
    4.2856   -1.4403    0.1105 C   0  0  0  0  0  0  0  0  0  0  0  0
    2.9268   -1.4799    0.1446 N   0  0  0  0  0  0  0  0  0  0  0  0
    6.4693   -0.4088   -0.2619 N   0  0  0  0  0  0  0  0  0  0  0  0
    7.0256   -1.4959   -1.1071 C   0  0  0  0  0  0  0  0  0  0  0  0
    8.5424   -1.6642   -0.8546 C   0  0  0  0  0  0  0  0  0  0  0  0
    9.3138   -0.4186   -1.0206 N   0  0  0  0  0  0  0  0  0  0  0  0
    8.7300    0.6246   -0.1575 C   0  0  0  0  0  0  0  0  0  0  0  0
    7.2232    0.8551   -0.4126 C   0  0  0  0  0  0  0  0  0  0  0  0
   -5.9059    4.3894    0.3144 H   0  0  0  0  0  0  0  0  0  0  0  0
   -5.1061    3.0269    1.1531 H   0  0  0  0  0  0  0  0  0  0  0  0
   -6.7457    3.4959    1.6083 H   0  0  0  0  0  0  0  0  0  0  0  0
   -8.2688    3.7479   -0.6607 H   0  0  0  0  0  0  0  0  0  0  0  0
   -8.6108    2.3562    0.4084 H   0  0  0  0  0  0  0  0  0  0  0  0
   -8.3985    2.1124   -1.3429 H   0  0  0  0  0  0  0  0  0  0  0  0
   -3.9293    3.4106   -1.4317 H   0  0  0  0  0  0  0  0  0  0  0  0
   -0.8227    3.4387   -1.4197 H   0  0  0  0  0  0  0  0  0  0  0  0
   -5.3688   -0.9395   -0.0027 H   0  0  0  0  0  0  0  0  0  0  0  0
   -3.1811   -1.8969   -1.6664 H   0  0  0  0  0  0  0  0  0  0  0  0
   -4.7186   -2.6523   -1.2606 H   0  0  0  0  0  0  0  0  0  0  0  0
   -3.2670   -4.1864   -0.1919 H   0  0  0  0  0  0  0  0  0  0  0  0
   -2.0671   -2.9331    0.1638 H   0  0  0  0  0  0  0  0  0  0  0  0
   -3.1835   -3.2451    2.3027 H   0  0  0  0  0  0  0  0  0  0  0  0
   -4.7756   -3.3290    1.5220 H   0  0  0  0  0  0  0  0  0  0  0  0
   -2.9555   -0.9058    1.8056 H   0  0  0  0  0  0  0  0  0  0  0  0
   -4.6684   -1.0154    2.2013 H   0  0  0  0  0  0  0  0  0  0  0  0
    0.5747   -1.3913    0.1458 H   0  0  0  0  0  0  0  0  0  0  0  0
    2.4070    1.6940   -0.8296 H   0  0  0  0  0  0  0  0  0  0  0  0
    4.8246    1.7158   -0.8896 H   0  0  0  0  0  0  0  0  0  0  0  0
    4.7521   -2.3658    0.4356 H   0  0  0  0  0  0  0  0  0  0  0  0
    6.5486   -2.4591   -0.8957 H   0  0  0  0  0  0  0  0  0  0  0  0
    6.8520   -1.2627   -2.1660 H   0  0  0  0  0  0  0  0  0  0  0  0
    8.6998   -2.0513    0.1601 H   0  0  0  0  0  0  0  0  0  0  0  0
    8.9373   -2.4140   -1.5486 H   0  0  0  0  0  0  0  0  0  0  0  0
   10.2777   -0.5852   -0.7344 H   0  0  0  0  0  0  0  0  0  0  0  0
    9.2683    1.5629   -0.3297 H   0  0  0  0  0  0  0  0  0  0  0  0
    8.8855    0.3525    0.8941 H   0  0  0  0  0  0  0  0  0  0  0  0
    7.0857    1.2625   -1.4226 H   0  0  0  0  0  0  0  0  0  0  0  0
    6.8710    1.5974    0.3140 H   0  0  0  0  0  0  0  0  0  0  0  0
  1  2  1  0
  2  3  1  0
  2  4  1  0
  4  5  2  0
  4  6  1  0
  6  7  2  0
  7  8  1  0
  8  9  2  0
  9 10  1  0
 10 11  2  0
 11 12  1  0
 12 13  2  0
 13 14  1  0
 14 15  1  0
 15 16  1  0
 16 17  1  0
 17 18  1  0
 18 19  1  0
 11 20  1  0
 20 21  1  0
 21 22  2  0
 22 23  1  0
 23 24  2  0
 24 25  1  0
 25 26  2  0
 24 27  1  0
 27 28  1  0
 28 29  1  0
 29 30  1  0
 30 31  1  0
 31 32  1  0
 14  6  1  0
 13  8  1  0
 19 15  1  0
 26 21  1  0
 32 27  1  0
  1 33  1  0
  1 34  1  0
  1 35  1  0
  3 36  1  0
  3 37  1  0
  3 38  1  0
  7 39  1  0
  9 40  1  0
 15 41  1  0
 16 42  1  0
 16 43  1  0
 17 44  1  0
 17 45  1  0
 18 46  1  0
 18 47  1  0
 19 48  1  0
 19 49  1  0
 20 50  1  0
 22 51  1  0
 23 52  1  0
 25 53  1  0
 28 54  1  0
 28 55  1  0
 29 56  1  0
 29 57  1  0
 30 58  1  0
 31 59  1  0
 31 60  1  0
 32 61  1  0
 32 62  1  0
M  END
>  <energy_abs>  (1) 
18.688675526841028

>  <SMILES>  (1) 
CN(C)C(=O)c1cc2cnc(nc2n1C3CCCC3)Nc4ccc(cn4)N5CCNCC5

>  <cluster_no>  (1) 
241

>  <fda_drugs_id>  (1) 
5L2T_6ZZ

>  <initial_conformation_id>  (1) 
4

>  <minimize_method>  (1) 
MMFF

$$$$
