
     RDKit          3D

 84 88  0  0  0  0  0  0  0  0999 V2000
   -8.6054   -0.7595   -1.1058 C   0  0  0  0  0  0  0  0  0  0  0  0
   -7.9969   -1.5224    0.0614 C   0  0  0  0  0  0  0  0  0  0  0  0
   -6.5675   -1.9129   -0.2157 C   0  0  0  0  0  0  0  0  0  0  0  0
   -5.4859   -1.0793    0.1254 C   0  0  0  0  0  0  0  0  0  0  0  0
   -4.2196   -1.4852   -0.1208 N   0  0  0  0  0  0  0  0  0  0  0  0
   -3.9934   -2.6742   -0.7358 C   0  0  0  0  0  0  0  0  0  0  0  0
   -5.0975   -3.4627   -1.0872 C   0  0  0  0  0  0  0  0  0  0  0  0
   -6.3967   -3.1094   -0.8383 N   0  0  0  0  0  0  0  0  0  0  0  0
   -4.9251   -4.7526   -1.8304 C   0  0  0  0  0  0  0  0  0  0  0  0
   -3.8501   -5.1187   -2.2899 O   0  0  0  0  0  0  0  0  0  0  0  0
   -6.0673   -5.4899   -2.0033 N   0  0  0  0  0  0  0  0  0  0  0  0
   -2.6682   -3.1203   -0.9572 N   0  0  0  0  0  0  0  0  0  0  0  0
   -1.4309   -2.4964   -0.7080 C   0  0  0  0  0  0  0  0  0  0  0  0
   -0.2821   -2.9778   -1.3491 C   0  0  0  0  0  0  0  0  0  0  0  0
    0.9796   -2.3933   -1.1411 C   0  0  0  0  0  0  0  0  0  0  0  0
    1.1467   -1.3038   -0.2796 C   0  0  0  0  0  0  0  0  0  0  0  0
   -0.0057   -0.8645    0.4022 C   0  0  0  0  0  0  0  0  0  0  0  0
   -1.2617   -1.4458    0.1900 C   0  0  0  0  0  0  0  0  0  0  0  0
    0.0691    0.1885    1.2863 O   0  0  0  0  0  0  0  0  0  0  0  0
    0.2447   -0.3073    2.6140 C   0  0  0  0  0  0  0  0  0  0  0  0
    2.3838   -0.6661   -0.0734 N   0  0  0  0  0  0  0  0  0  0  0  0
    2.4165    0.6863   -0.6429 C   0  0  0  0  0  0  0  0  0  0  0  0
    3.5680    1.4760   -0.0275 C   0  0  0  0  0  0  0  0  0  0  0  0
    4.9251    0.7587   -0.2042 C   0  0  0  0  0  0  0  0  0  0  0  0
    4.7906   -0.6895    0.3240 C   0  0  0  0  0  0  0  0  0  0  0  0
    3.6090   -1.4270   -0.3100 C   0  0  0  0  0  0  0  0  0  0  0  0
    6.0442    1.4886    0.4657 N   0  0  0  0  0  0  0  0  0  0  0  0
    7.3555    0.8399    0.2373 C   0  0  0  0  0  0  0  0  0  0  0  0
    8.5578    1.6248    0.8188 C   0  0  0  0  0  0  0  0  0  0  0  0
    8.6416    3.0385    0.4123 N   0  0  0  0  0  0  0  0  0  0  0  0
    7.3331    3.6696    0.6572 C   0  0  0  0  0  0  0  0  0  0  0  0
    6.1188    2.9129    0.0673 C   0  0  0  0  0  0  0  0  0  0  0  0
    9.0607    3.1804   -0.9792 C   0  0  0  0  0  0  0  0  0  0  0  0
   -5.6920    0.1486    0.7734 N   0  0  0  0  0  0  0  0  0  0  0  0
   -4.5005    0.9475    1.0933 C   0  0  0  0  0  0  0  0  0  0  0  0
   -4.8679    1.9676    2.1775 C   0  0  0  0  0  0  0  0  0  0  0  0
   -3.6738    2.8695    2.4563 C   0  0  0  0  0  0  0  0  0  0  0  0
   -3.2576    3.5273    1.2586 O   0  0  0  0  0  0  0  0  0  0  0  0
   -2.8168    2.6035    0.2631 C   0  0  0  0  0  0  0  0  0  0  0  0
   -3.9565    1.6786   -0.1393 C   0  0  0  0  0  0  0  0  0  0  0  0
   -8.0499    0.1625   -1.3120 H   0  0  0  0  0  0  0  0  0  0  0  0
   -9.6419   -0.4871   -0.8797 H   0  0  0  0  0  0  0  0  0  0  0  0
   -8.6041   -1.3626   -2.0206 H   0  0  0  0  0  0  0  0  0  0  0  0
   -8.0719   -0.9308    0.9798 H   0  0  0  0  0  0  0  0  0  0  0  0
   -8.5860   -2.4305    0.2388 H   0  0  0  0  0  0  0  0  0  0  0  0
   -6.0436   -6.3138   -2.5858 H   0  0  0  0  0  0  0  0  0  0  0  0
   -6.9565   -5.1008   -1.7076 H   0  0  0  0  0  0  0  0  0  0  0  0
   -2.6324   -3.8261   -1.6981 H   0  0  0  0  0  0  0  0  0  0  0  0
   -0.3546   -3.8139   -2.0414 H   0  0  0  0  0  0  0  0  0  0  0  0
    1.8209   -2.8000   -1.6948 H   0  0  0  0  0  0  0  0  0  0  0  0
   -2.1003   -1.0650    0.7591 H   0  0  0  0  0  0  0  0  0  0  0  0
    0.9644   -1.1355    2.6651 H   0  0  0  0  0  0  0  0  0  0  0  0
    0.6193    0.5128    3.2321 H   0  0  0  0  0  0  0  0  0  0  0  0
   -0.7223   -0.6217    3.0255 H   0  0  0  0  0  0  0  0  0  0  0  0
    2.5429    0.6279   -1.7330 H   0  0  0  0  0  0  0  0  0  0  0  0
    1.4910    1.2447   -0.4592 H   0  0  0  0  0  0  0  0  0  0  0  0
    3.5777    2.4580   -0.5137 H   0  0  0  0  0  0  0  0  0  0  0  0
    3.3727    1.6386    1.0402 H   0  0  0  0  0  0  0  0  0  0  0  0
    5.1359    0.7117   -1.2830 H   0  0  0  0  0  0  0  0  0  0  0  0
    4.6648   -0.6695    1.4147 H   0  0  0  0  0  0  0  0  0  0  0  0
    5.6922   -1.2737    0.1098 H   0  0  0  0  0  0  0  0  0  0  0  0
    3.7893   -1.5601   -1.3847 H   0  0  0  0  0  0  0  0  0  0  0  0
    3.5384   -2.4217    0.1483 H   0  0  0  0  0  0  0  0  0  0  0  0
    7.3726   -0.1427    0.7219 H   0  0  0  0  0  0  0  0  0  0  0  0
    7.5148    0.6750   -0.8366 H   0  0  0  0  0  0  0  0  0  0  0  0
    9.4899    1.1040    0.5649 H   0  0  0  0  0  0  0  0  0  0  0  0
    8.4966    1.5920    1.9152 H   0  0  0  0  0  0  0  0  0  0  0  0
    7.3338    4.7037    0.2861 H   0  0  0  0  0  0  0  0  0  0  0  0
    7.1983    3.7497    1.7449 H   0  0  0  0  0  0  0  0  0  0  0  0
    5.2295    3.4470    0.4249 H   0  0  0  0  0  0  0  0  0  0  0  0
    6.1370    2.9981   -1.0272 H   0  0  0  0  0  0  0  0  0  0  0  0
   10.0622    2.7598   -1.1153 H   0  0  0  0  0  0  0  0  0  0  0  0
    8.3871    2.6910   -1.6877 H   0  0  0  0  0  0  0  0  0  0  0  0
    9.1287    4.2392   -1.2512 H   0  0  0  0  0  0  0  0  0  0  0  0
   -6.4011    0.6967    0.2942 H   0  0  0  0  0  0  0  0  0  0  0  0
   -3.7198    0.3077    1.5227 H   0  0  0  0  0  0  0  0  0  0  0  0
   -5.1838    1.4592    3.0973 H   0  0  0  0  0  0  0  0  0  0  0  0
   -5.7141    2.5807    1.8383 H   0  0  0  0  0  0  0  0  0  0  0  0
   -2.8330    2.3037    2.8754 H   0  0  0  0  0  0  0  0  0  0  0  0
   -3.9482    3.6415    3.1829 H   0  0  0  0  0  0  0  0  0  0  0  0
   -1.9541    2.0435    0.6395 H   0  0  0  0  0  0  0  0  0  0  0  0
   -2.4799    3.1825   -0.6030 H   0  0  0  0  0  0  0  0  0  0  0  0
   -3.6120    0.9755   -0.9030 H   0  0  0  0  0  0  0  0  0  0  0  0
   -4.7593    2.2745   -0.5914 H   0  0  0  0  0  0  0  0  0  0  0  0
  1  2  1  0
  2  3  1  0
  3  4  2  0
  4  5  1  0
  5  6  2  0
  6  7  1  0
  7  8  2  0
  7  9  1  0
  9 10  2  0
  9 11  1  0
  6 12  1  0
 12 13  1  0
 13 14  2  0
 14 15  1  0
 15 16  2  0
 16 17  1  0
 17 18  2  0
 17 19  1  0
 19 20  1  0
 16 21  1  0
 21 22  1  0
 22 23  1  0
 23 24  1  0
 24 25  1  0
 25 26  1  0
 24 27  1  0
 27 28  1  0
 28 29  1  0
 29 30  1  0
 30 31  1  0
 31 32  1  0
 30 33  1  0
  4 34  1  0
 34 35  1  0
 35 36  1  0
 36 37  1  0
 37 38  1  0
 38 39  1  0
 39 40  1  0
  8  3  1  0
 18 13  1  0
 26 21  1  0
 32 27  1  0
 40 35  1  0
  1 41  1  0
  1 42  1  0
  1 43  1  0
  2 44  1  0
  2 45  1  0
 11 46  1  0
 11 47  1  0
 12 48  1  0
 14 49  1  0
 15 50  1  0
 18 51  1  0
 20 52  1  0
 20 53  1  0
 20 54  1  0
 22 55  1  0
 22 56  1  0
 23 57  1  0
 23 58  1  0
 24 59  1  0
 25 60  1  0
 25 61  1  0
 26 62  1  0
 26 63  1  0
 28 64  1  0
 28 65  1  0
 29 66  1  0
 29 67  1  0
 31 68  1  0
 31 69  1  0
 32 70  1  0
 32 71  1  0
 33 72  1  0
 33 73  1  0
 33 74  1  0
 34 75  1  0
 35 76  1  0
 36 77  1  0
 36 78  1  0
 37 79  1  0
 37 80  1  0
 39 81  1  0
 39 82  1  0
 40 83  1  0
 40 84  1  0
M  END
>  <energy_abs>  (1) 
166.2252177764182

>  <SMILES>  (1) 
CCc1c(nc(c(n1)C(=O)N)Nc2ccc(c(c2)OC)N3CCC(CC3)N4CCN(CC4)C)NC5CCOCC5

>  <cluster_no>  (1) 
77

>  <fda_drugs_id>  (1) 
6JQR_C6F

>  <initial_conformation_id>  (1) 
223

>  <minimize_method>  (1) 
MMFF

$$$$
