
     RDKit          3D

 79 83  0  0  0  0  0  0  0  0999 V2000
   11.5518    1.5223   -0.1695 C   0  0  0  0  0  0  0  0  0  0  0  0
   10.1685    1.1240   -0.4233 N   0  0  0  0  0  0  0  0  0  0  0  0
    9.2344    1.9928    0.3218 C   0  0  0  0  0  0  0  0  0  0  0  0
    7.7577    1.5605    0.1493 C   0  0  0  0  0  0  0  0  0  0  0  0
    7.5435    0.1550    0.5475 N   0  0  0  0  0  0  0  0  0  0  0  0
    8.4716   -0.7110   -0.2073 C   0  0  0  0  0  0  0  0  0  0  0  0
    9.9456   -0.2783   -0.0201 C   0  0  0  0  0  0  0  0  0  0  0  0
    6.1436   -0.3139    0.4813 C   0  0  0  0  0  0  0  0  0  0  0  0
    5.3188    0.3021    1.6248 C   0  0  0  0  0  0  0  0  0  0  0  0
    3.9055   -0.2760    1.6410 C   0  0  0  0  0  0  0  0  0  0  0  0
    3.2642   -0.0587    0.3354 N   0  0  0  0  0  0  0  0  0  0  0  0
    3.9915   -0.6588   -0.7973 C   0  0  0  0  0  0  0  0  0  0  0  0
    5.4147   -0.0964   -0.8561 C   0  0  0  0  0  0  0  0  0  0  0  0
    1.8686   -0.2259    0.2697 C   0  0  0  0  0  0  0  0  0  0  0  0
    1.1287   -0.9236    1.2313 C   0  0  0  0  0  0  0  0  0  0  0  0
   -0.2681   -1.0171    1.1585 C   0  0  0  0  0  0  0  0  0  0  0  0
   -0.9785   -0.4093    0.1245 C   0  0  0  0  0  0  0  0  0  0  0  0
   -0.2457    0.2762   -0.8689 C   0  0  0  0  0  0  0  0  0  0  0  0
    1.1516    0.3695   -0.7824 C   0  0  0  0  0  0  0  0  0  0  0  0
   -1.0103    0.8504   -1.8616 O   0  0  0  0  0  0  0  0  0  0  0  0
   -0.3157    1.4152   -2.9650 C   0  0  0  0  0  0  0  0  0  0  0  0
   -2.3785   -0.4513    0.0150 N   0  0  0  0  0  0  0  0  0  0  0  0
   -3.4038   -0.8134    0.8772 C   0  0  0  0  0  0  0  0  0  0  0  0
   -3.1691   -1.4800    2.0150 N   0  0  0  0  0  0  0  0  0  0  0  0
   -4.2325   -1.7496    2.7961 C   0  0  0  0  0  0  0  0  0  0  0  0
   -5.5190   -1.3761    2.4909 C   0  0  0  0  0  0  0  0  0  0  0  0
   -5.6904   -0.6951    1.2918 C   0  0  0  0  0  0  0  0  0  0  0  0
   -4.6326   -0.4240    0.4958 N   0  0  0  0  0  0  0  0  0  0  0  0
   -6.9877   -0.2323    0.9461 N   0  0  0  0  0  0  0  0  0  0  0  0
   -7.4321    0.6140   -0.0976 C   0  0  0  0  0  0  0  0  0  0  0  0
   -6.5670    1.4864   -0.7744 C   0  0  0  0  0  0  0  0  0  0  0  0
   -7.0300    2.3622   -1.7598 C   0  0  0  0  0  0  0  0  0  0  0  0
   -8.3818    2.4090   -2.0662 C   0  0  0  0  0  0  0  0  0  0  0  0
   -9.2719    1.5887   -1.3775 C   0  0  0  0  0  0  0  0  0  0  0  0
   -8.8148    0.6946   -0.3907 C   0  0  0  0  0  0  0  0  0  0  0  0
   -9.9835   -0.3029    0.4954 P   0  0  0  0  0  5  0  0  0  0  0  0
   -9.3915   -1.5252    1.1616 O   0  0  0  0  0  0  0  0  0  0  0  0
  -10.7853    0.7359    1.7260 C   0  0  0  0  0  0  0  0  0  0  0  0
  -11.3463   -0.7989   -0.5665 C   0  0  0  0  0  0  0  0  0  0  0  0
   -6.8014   -1.7410    3.5747 Cl  0  0  0  0  0  0  0  0  0  0  0  0
   12.2471    0.8707   -0.7080 H   0  0  0  0  0  0  0  0  0  0  0  0
   11.8055    1.4871    0.8961 H   0  0  0  0  0  0  0  0  0  0  0  0
   11.7283    2.5414   -0.5327 H   0  0  0  0  0  0  0  0  0  0  0  0
    9.3325    3.0249   -0.0364 H   0  0  0  0  0  0  0  0  0  0  0  0
    9.4817    1.9950    1.3930 H   0  0  0  0  0  0  0  0  0  0  0  0
    7.1494    2.2288    0.7707 H   0  0  0  0  0  0  0  0  0  0  0  0
    7.4679    1.7238   -0.8965 H   0  0  0  0  0  0  0  0  0  0  0  0
    8.3806   -1.7456    0.1473 H   0  0  0  0  0  0  0  0  0  0  0  0
    8.2306   -0.7052   -1.2779 H   0  0  0  0  0  0  0  0  0  0  0  0
   10.5771   -0.9368   -0.6280 H   0  0  0  0  0  0  0  0  0  0  0  0
   10.2303   -0.4295    1.0306 H   0  0  0  0  0  0  0  0  0  0  0  0
    6.1626   -1.3968    0.6750 H   0  0  0  0  0  0  0  0  0  0  0  0
    5.2513    1.3913    1.5148 H   0  0  0  0  0  0  0  0  0  0  0  0
    5.7994    0.1022    2.5905 H   0  0  0  0  0  0  0  0  0  0  0  0
    3.3465    0.2324    2.4364 H   0  0  0  0  0  0  0  0  0  0  0  0
    3.9450   -1.3466    1.8803 H   0  0  0  0  0  0  0  0  0  0  0  0
    4.0217   -1.7512   -0.6851 H   0  0  0  0  0  0  0  0  0  0  0  0
    3.5078   -0.4447   -1.7579 H   0  0  0  0  0  0  0  0  0  0  0  0
    5.3529    0.9729   -1.0917 H   0  0  0  0  0  0  0  0  0  0  0  0
    5.9554   -0.5813   -1.6760 H   0  0  0  0  0  0  0  0  0  0  0  0
    1.6165   -1.4220    2.0628 H   0  0  0  0  0  0  0  0  0  0  0  0
   -0.7808   -1.5769    1.9340 H   0  0  0  0  0  0  0  0  0  0  0  0
    1.7108    0.9496   -1.5082 H   0  0  0  0  0  0  0  0  0  0  0  0
   -1.0625    1.7422   -3.6960 H   0  0  0  0  0  0  0  0  0  0  0  0
    0.3253    0.6734   -3.4522 H   0  0  0  0  0  0  0  0  0  0  0  0
    0.2561    2.2967   -2.6590 H   0  0  0  0  0  0  0  0  0  0  0  0
   -2.7421    0.0964   -0.7545 H   0  0  0  0  0  0  0  0  0  0  0  0
   -4.0020   -2.2861    3.7117 H   0  0  0  0  0  0  0  0  0  0  0  0
   -7.6798   -0.9550    1.1906 H   0  0  0  0  0  0  0  0  0  0  0  0
   -5.5069    1.5100   -0.5417 H   0  0  0  0  0  0  0  0  0  0  0  0
   -6.3279    3.0136   -2.2746 H   0  0  0  0  0  0  0  0  0  0  0  0
   -8.7450    3.0924   -2.8285 H   0  0  0  0  0  0  0  0  0  0  0  0
  -10.3296    1.6594   -1.6137 H   0  0  0  0  0  0  0  0  0  0  0  0
  -11.5103    0.1499    2.2972 H   0  0  0  0  0  0  0  0  0  0  0  0
  -11.3141    1.5641    1.2458 H   0  0  0  0  0  0  0  0  0  0  0  0
  -10.0446    1.1469    2.4172 H   0  0  0  0  0  0  0  0  0  0  0  0
  -10.9724   -1.3625   -1.4260 H   0  0  0  0  0  0  0  0  0  0  0  0
  -12.0375   -1.4365   -0.0090 H   0  0  0  0  0  0  0  0  0  0  0  0
  -11.9066    0.0667   -0.9296 H   0  0  0  0  0  0  0  0  0  0  0  0
  1  2  1  0
  2  3  1  0
  3  4  1  0
  4  5  1  0
  5  6  1  0
  6  7  1  0
  5  8  1  0
  8  9  1  0
  9 10  1  0
 10 11  1  0
 11 12  1  0
 12 13  1  0
 11 14  1  0
 14 15  2  0
 15 16  1  0
 16 17  2  0
 17 18  1  0
 18 19  2  0
 18 20  1  0
 20 21  1  0
 17 22  1  0
 22 23  1  0
 23 24  2  0
 24 25  1  0
 25 26  2  0
 26 27  1  0
 27 28  2  0
 27 29  1  0
 29 30  1  0
 30 31  2  0
 31 32  1  0
 32 33  2  0
 33 34  1  0
 34 35  2  0
 35 36  1  0
 36 37  2  0
 36 38  1  0
 36 39  1  0
 26 40  1  0
  7  2  1  0
 13  8  1  0
 19 14  1  0
 28 23  1  0
 35 30  1  0
  1 41  1  0
  1 42  1  0
  1 43  1  0
  3 44  1  0
  3 45  1  0
  4 46  1  0
  4 47  1  0
  6 48  1  0
  6 49  1  0
  7 50  1  0
  7 51  1  0
  8 52  1  0
  9 53  1  0
  9 54  1  0
 10 55  1  0
 10 56  1  0
 12 57  1  0
 12 58  1  0
 13 59  1  0
 13 60  1  0
 15 61  1  0
 16 62  1  0
 19 63  1  0
 21 64  1  0
 21 65  1  0
 21 66  1  0
 22 67  1  0
 25 68  1  0
 29 69  1  0
 31 70  1  0
 32 71  1  0
 33 72  1  0
 34 73  1  0
 38 74  1  0
 38 75  1  0
 38 76  1  0
 39 77  1  0
 39 78  1  0
 39 79  1  0
M  END
>  <energy_abs>  (1) 
73.32159941130227

>  <SMILES>  (1) 
CN1CCN(CC1)C2CCN(CC2)c3ccc(c(c3)OC)Nc4ncc(c(n4)Nc5ccccc5P(=O)(C)C)Cl

>  <cluster_no>  (1) 
276

>  <fda_drugs_id>  (1) 
6MX8_6GY

>  <initial_conformation_id>  (1) 
24

>  <minimize_method>  (1) 
MMFF

$$$$
