
     RDKit          3D

 43 45  0  0  0  0  0  0  0  0999 V2000
   -0.2639   -0.4421   -3.1905 C   0  0  0  0  0  0  0  0  0  0  0  0
    0.7138    0.4205   -2.3898 C   0  0  2  0  0  0  0  0  0  0  0  0
    2.0845   -0.2544   -2.2884 C   0  0  0  0  0  0  0  0  0  0  0  0
    3.0674    0.5586   -1.4521 C   0  0  0  0  0  0  0  0  0  0  0  0
    2.5263    0.9575   -0.1527 N   0  0  0  0  0  0  0  0  0  0  0  0
    1.2122    1.6224   -0.1972 C   0  0  0  0  0  0  0  0  0  0  0  0
    0.1468    0.8577   -1.0152 C   0  0  2  0  0  0  0  0  0  0  0  0
   -0.4935   -0.2728   -0.2870 N   0  0  0  0  0  0  0  0  0  0  0  0
    0.3234   -1.1368    0.5648 C   0  0  0  0  0  0  0  0  0  0  0  0
   -1.6447    0.1233    0.4318 C   0  0  0  0  0  0  0  0  0  0  0  0
   -2.7388   -0.7418    0.6384 C   0  0  0  0  0  0  0  0  0  0  0  0
   -3.0882   -2.0725    0.2653 C   0  0  0  0  0  0  0  0  0  0  0  0
   -4.3350   -2.3448    0.7889 C   0  0  0  0  0  0  0  0  0  0  0  0
   -4.7582   -1.2244    1.4577 N   0  0  0  0  0  0  0  0  0  0  0  0
   -3.8066   -0.2453    1.3692 C   0  0  0  0  0  0  0  0  0  0  0  0
   -3.9206    0.9770    1.9060 N   0  0  0  0  0  0  0  0  0  0  0  0
   -2.8378    1.7246    1.6412 C   0  0  0  0  0  0  0  0  0  0  0  0
   -1.7311    1.3771    0.9523 N   0  0  0  0  0  0  0  0  0  0  0  0
    3.4479    1.1601    0.8776 C   0  0  0  0  0  0  0  0  0  0  0  0
    4.6414    0.8725    0.7492 O   0  0  0  0  0  0  0  0  0  0  0  0
    2.9615    1.7083    2.2015 C   0  0  0  0  0  0  0  0  0  0  0  0
    2.9075    3.1679    2.1612 C   0  0  0  0  0  0  0  0  0  0  0  0
    2.8280    4.3257    2.1337 N   0  0  0  0  0  0  0  0  0  0  0  0
   -0.4132   -1.4233   -2.7280 H   0  0  0  0  0  0  0  0  0  0  0  0
   -1.2385    0.0500   -3.2743 H   0  0  0  0  0  0  0  0  0  0  0  0
    0.1137   -0.6087   -4.2051 H   0  0  0  0  0  0  0  0  0  0  0  0
    0.8657    1.3434   -2.9693 H   0  0  0  0  0  0  0  0  0  0  0  0
    1.9857   -1.2617   -1.8726 H   0  0  0  0  0  0  0  0  0  0  0  0
    2.5041   -0.3883   -3.2934 H   0  0  0  0  0  0  0  0  0  0  0  0
    3.9855   -0.0249   -1.3225 H   0  0  0  0  0  0  0  0  0  0  0  0
    3.3443    1.4789   -1.9813 H   0  0  0  0  0  0  0  0  0  0  0  0
    1.3876    2.6018   -0.6613 H   0  0  0  0  0  0  0  0  0  0  0  0
    0.8431    1.8206    0.8095 H   0  0  0  0  0  0  0  0  0  0  0  0
   -0.6406    1.5848   -1.2661 H   0  0  0  0  0  0  0  0  0  0  0  0
   -0.2242   -2.0385    0.8619 H   0  0  0  0  0  0  0  0  0  0  0  0
    0.6463   -0.6233    1.4778 H   0  0  0  0  0  0  0  0  0  0  0  0
    1.2128   -1.4929    0.0448 H   0  0  0  0  0  0  0  0  0  0  0  0
   -2.4867   -2.7483   -0.3289 H   0  0  0  0  0  0  0  0  0  0  0  0
   -4.9564   -3.2290    0.7374 H   0  0  0  0  0  0  0  0  0  0  0  0
   -5.6378   -1.1097    1.9401 H   0  0  0  0  0  0  0  0  0  0  0  0
   -2.8527    2.7377    2.0324 H   0  0  0  0  0  0  0  0  0  0  0  0
    3.6660    1.3832    2.9766 H   0  0  0  0  0  0  0  0  0  0  0  0
    2.0001    1.2647    2.4734 H   0  0  0  0  0  0  0  0  0  0  0  0
  1  2  1  0
  2  3  1  0
  3  4  1  0
  4  5  1  0
  5  6  1  0
  6  7  1  0
  7  8  1  0
  8  9  1  0
  8 10  1  0
 10 11  2  0
 11 12  1  0
 12 13  2  0
 13 14  1  0
 14 15  1  0
 15 16  2  0
 16 17  1  0
 17 18  2  0
  5 19  1  0
 19 20  2  0
 19 21  1  0
 21 22  1  0
 22 23  3  0
  7  2  1  0
 18 10  1  0
 15 11  1  0
  1 24  1  0
  1 25  1  0
  1 26  1  0
  2 27  1  6
  3 28  1  0
  3 29  1  0
  4 30  1  0
  4 31  1  0
  6 32  1  0
  6 33  1  0
  7 34  1  6
  9 35  1  0
  9 36  1  0
  9 37  1  0
 12 38  1  0
 13 39  1  0
 14 40  1  0
 17 41  1  0
 21 42  1  0
 21 43  1  0
M  END
>  <energy_abs>  (1) 
7.038018785585653

>  <SMILES>  (1) 
C[C@@H]1CCN(C[C@@H]1N(C)c2c3cc[nH]c3ncn2)C(=O)CC#N

>  <cluster_no>  (1) 
67

>  <fda_drugs_id>  (1) 
UJLAWZDWDVHWOW-YPMHNXCESA-N

>  <initial_conformation_id>  (1) 
64

>  <minimize_method>  (1) 
MMFF

$$$$
